**
** ABAQUS Input Deck Generated by HyperMesh Version  : 2019.1.0.20
** Generated using HyperMesh-Abaqus Template Version : 2019.1.0.20
**
**   Template:  ABAQUS/STANDARD 3D
**
*Part, name=PART-1-1
*NODE
         1,  2.127974088E-15,  -0.974065931336
         2,  0.2581626372515,  -1.128261020266
         3,  0.527649948144 ,  -1.262354182652
         4,  0.796789704992 ,  -1.397032621843
         5,  1.0791191827166,  -1.500894893375
         6,  1.3686846857585,  -1.582996302513
         7,  1.6613737520673,  -1.653268062742
         8,  1.956222460483 ,  -1.713772196751
         9,  2.2528515836183,  -1.764649268386
        10,  2.5508016303433,  -1.807307492665
        11,  2.8495157005434,  -1.844269417283
        12,  3.1487771953314,  -1.876562193268
        13,  3.4484503493899,  -1.904783656638
        14,  3.7484115013783,  -1.929689206608
        15,  4.0485923768147,  -1.951881185988
        16,  4.3489458223871,  -1.971685669007
        17,  4.649438570616 ,  -1.989214249662
        18,  4.9500424932609,  -2.004421290327
        19,  5.2507646453643,  -2.017170924723
        20,  5.5515947087788,  -2.027337745588
** ... 1044 like lines cut
**HWCOLOR COMP          2    11
*ELEMENT,TYPE=CPS3,ELSET=WingElset
         1,         2,       223,         1
        11,       227,       220,       221
        14,       230,       235,       229
        21,       236,       242,       232
        28,       241,       245,       237
        40,       251,       255,       248
        76,       283,       288,       276
        80,       287,       292,       282
       147,       347,       355,       340
       153,       351,       356,       345
       233,       425,       433,       416
       314,       502,       498,       488
       381,       560,       551,       571
       584,       746,       738,       752
       694,       848,       838,       849
       699,       851,       842,       858
       701,       848,       855,       846
       758,       902,       895,       909
       824,       959,       953,       965
       864,       994,       989,       996
** ... 6 like lines cut
**HWCOLOR COMP          2    11
*ELEMENT,TYPE=CPS4,ELSET=WingElset
         2,         2,         3,       224,       223
         3,         1,       223,       225,       222
         4,         3,         4,       226,       224
         5,       223,       224,       228,       225
         6,       225,       227,       221,       222
         7,         4,         5,       229,       226
         8,         5,         6,       230,       229
         9,       224,       226,       231,       228
        10,       225,       228,       232,       227
        12,       226,       229,       233,       231
        13,       234,       230,         6,         7
        15,       228,       231,       236,       232
        16,       227,       232,       219,       220
        17,       237,       234,         7,         8
        18,       229,       235,       238,       233
        19,       239,       235,       230,       234
        20,       231,       233,       240,       236
        22,         9,       241,       237,         8
        23,       243,       239,       234,       237
        24,       244,       238,       235,       239
** ... 919 like lines cut
**HM_PROP_ID          1
*Elset, elset=WingElset, generate
 1,965,1
** Section
*Shell Section, ELSET=WingElset, Material=material1
10.0      ,
*End Part
** 
** MATERIALS
** 
*Material, name=material1
*DENSITY
10.0      ,0.0       
*ELASTIC, TYPE = ISOTROPIC
2.1000E+09,0.3       ,0.0       
**
*Nset, nset=_PICKEDSET205, internal, instance=PART-1-1
  1, 2, 3, 219, 220, 221, 222
*Nset, nset=SET-191, instance=PART-1-1
 110,
**HMNAME MATS          1 material1     6
**HWNAME LOADCOL          1 auto2
**HWCOLOR LOADCOL          1    17
*BOUNDARY
_PICKEDSET205, ENCASTRE
*Step,
*Cload
SET-191, 1, 100.
*End Step
