*Heading
** Job name: Job-1 Model name: Job-1
** Generated by: Abaqus/CAE 2023
*Preprint, echo=NO, model=NO, history=NO, contact=NO
**
** PARTS
**
*Part, name=PART-1-1
*Node
      1,           0.,           0.,           0.
      2,           0.,           0.,           5.
      3,           5.,           0.,           5.
      4,           5.,           0.,           0.
      5,          2.5,   1.90903175,           0.
      6,          2.5,   1.90903175,           5.
      7,         1.25,   0.99989152,           5.
      8,         1.25,   0.99989152,           0.
      9,         -2.5,   1.90903175,           0.
     10,         -2.5,   1.90903175,           5.
     11,          -4.,           3.,           5.
     12,          -4.,           3.,           0.
     13,          -5.,           3.,           5.
     14,          -5.,           0.,           5.
     15,          -5.,           0.,           0.
     16,          -5.,           3.,           0.
     17,           5.,           3.,           5.
     18,           5.,           3.,           0.
     19,           4.,           3.,           5.
     20,           4.,           3.,           0.
** ... 195 like lines cut
*Element, type=S4RT
  1,   1,  29, 129,  44
  2,  29,  30, 130, 129
  3,  30,  31, 131, 130
  4,  31,   2,  32, 131
  5,  44, 129, 132,  43
  6, 129, 130, 133, 132
  7, 130, 131, 134, 133
  8, 131,  32,  33, 134
  9,  43, 132, 135,  42
 10, 132, 133, 136, 135
 11, 133, 134, 137, 136
 12, 134,  33,  34, 137
 13,  42, 135, 138,  41
 14, 135, 136, 139, 138
 15, 136, 137, 140, 139
 16, 137,  34,  35, 140
 17,  41, 138, 141,  40
 18, 138, 139, 142, 141
 19, 139, 140, 143, 142
 20, 140,  35,  36, 143
** ... 164 like lines cut
*Elset, elset=SET-1
 1,
*Elset, elset=SET-2
 2,
*Elset, elset=SET-3
 3,
*Elset, elset=SET-4
 4,
*Elset, elset=SET-5
 5,
*Elset, elset=SET-6
 6,
*Elset, elset=SET-7
 7,
*Elset, elset=SET-8
 8,
*Elset, elset=SET-9
 9,
*Elset, elset=SET-10
 10,
*Elset, elset=SET-11
 11,
*Elset, elset=SET-12
 12,
*Elset, elset=SET-13
 13,
*Elset, elset=SET-14
 14,
*Elset, elset=SET-15
 15,
*Elset, elset=SET-16
 16,
*Elset, elset=SET-17
 17,
*Elset, elset=SET-18
 18,
*Elset, elset=SET-19
 19,
*Elset, elset=SET-20
 20,
** ... 328 like lines cut
** Section: Section-1-SET-1
*Shell Section, elset=SET-1, material=MATERIAL-1
0.07, 5
** Section: Section-2-SET-2
*Shell Section, elset=SET-2, material=MATERIAL-2
0.07, 5
** Section: Section-3-SET-3
*Shell Section, elset=SET-3, material=MATERIAL-3
0.07, 5
** Section: Section-4-SET-4
*Shell Section, elset=SET-4, material=MATERIAL-4
0.07, 5
** Section: Section-5-SET-5
*Shell Section, elset=SET-5, material=MATERIAL-5
0.07, 5
** Section: Section-6-SET-6
*Shell Section, elset=SET-6, material=MATERIAL-6
0.07, 5
** Section: Section-7-SET-7
*Shell Section, elset=SET-7, material=MATERIAL-7
0.07, 5
** Section: Section-8-SET-8
*Shell Section, elset=SET-8, material=MATERIAL-8
0.07, 5
** Section: Section-9-SET-9
*Shell Section, elset=SET-9, material=MATERIAL-9
0.07, 5
** Section: Section-10-SET-10
*Shell Section, elset=SET-10, material=MATERIAL-10
0.07, 5
** Section: Section-11-SET-11
*Shell Section, elset=SET-11, material=MATERIAL-11
0.07, 5
** Section: Section-12-SET-12
*Shell Section, elset=SET-12, material=MATERIAL-12
0.07, 5
** Section: Section-13-SET-13
*Shell Section, elset=SET-13, material=MATERIAL-13
0.07, 5
** Section: Section-14-SET-14
*Shell Section, elset=SET-14, material=MATERIAL-14
0.07, 5
** Section: Section-15-SET-15
*Shell Section, elset=SET-15, material=MATERIAL-15
0.07, 5
** Section: Section-16-SET-16
*Shell Section, elset=SET-16, material=MATERIAL-16
0.07, 5
** Section: Section-17-SET-17
*Shell Section, elset=SET-17, material=MATERIAL-17
0.07, 5
** Section: Section-18-SET-18
*Shell Section, elset=SET-18, material=MATERIAL-18
0.07, 5
** Section: Section-19-SET-19
*Shell Section, elset=SET-19, material=MATERIAL-19
0.07, 5
** Section: Section-20-SET-20
*Shell Section, elset=SET-20, material=MATERIAL-20
0.07, 5
** ... 492 like lines cut
*End Part
**  
**
** ASSEMBLY
**
*Assembly, name=Assembly
**  
*Instance, name=PART-1-1, part=PART-1-1
*End Instance
**  
*Nset, nset=LOAD, instance=PART-1-1
 201, 203, 210, 212
*Nset, nset=SENSOR, instance=PART-1-1
 201, 203
*Elset, elset=SET-1, instance=PART-1-1
 1,
*Elset, elset=SET-2, instance=PART-1-1
 2,
*Elset, elset=SET-3, instance=PART-1-1
 3,
*Elset, elset=SET-4, instance=PART-1-1
 4,
*Elset, elset=SET-5, instance=PART-1-1
 5,
*Elset, elset=SET-6, instance=PART-1-1
 6,
*Elset, elset=SET-7, instance=PART-1-1
 7,
*Elset, elset=SET-8, instance=PART-1-1
 8,
*Elset, elset=SET-9, instance=PART-1-1
 9,
*Elset, elset=SET-10, instance=PART-1-1
 10,
*Elset, elset=SET-11, instance=PART-1-1
 11,
*Elset, elset=SET-12, instance=PART-1-1
 12,
*Elset, elset=SET-13, instance=PART-1-1
 13,
*Elset, elset=SET-14, instance=PART-1-1
 14,
*Elset, elset=SET-15, instance=PART-1-1
 15,
*Elset, elset=SET-16, instance=PART-1-1
 16,
*Elset, elset=SET-17, instance=PART-1-1
 17,
*Elset, elset=SET-18, instance=PART-1-1
 18,
*Elset, elset=SET-19, instance=PART-1-1
 19,
*Elset, elset=SET-20, instance=PART-1-1
** ... 329 like lines cut
*Nset, nset=SET-191, instance=PART-1-1
 212,
*Nset, nset=SET-192, instance=PART-1-1
 210,
*Nset, nset=SET-193, instance=PART-1-1
 201, 203
*Nset, nset=_PICKEDSET205, internal, instance=PART-1-1
   1,   2,   3,   4,  13,  14,  15,  16,  17,  18,  29,  30,  31,  32,  33,  34
  35,  36,  37,  38,  39,  40,  41,  42,  43,  44,  63,  64,  65,  66,  67,  68
  69,  70,  71,  72,  73,  74,  75,  76,  77,  78,  79,  80,  81,  82,  83,  84
  85,  86,  87,  88,  89,  90,  91,  92,  93, 129, 130, 131, 132, 133, 134, 135
 136, 137, 138, 139, 140, 141, 142, 143, 153, 154, 155, 156, 157, 158, 159, 160
 161, 162, 163, 164, 165, 166, 167, 168, 169, 170, 171, 172, 173, 174, 175, 176
 177, 178, 179, 180, 181, 182, 183, 184, 185
*Elset, elset=__PICKEDSURF19_SNEG, internal, instance=PART-1-1, generate
 117,  132,    1
*Elset, elset=__PICKEDSURF20_SNEG, internal, instance=PART-1-1, generate
 145,  152,    1
*Elset, elset=__PICKEDSURF20_SPOS, internal, instance=PART-1-1, generate
 169,  176,    1
*End Assembly
** 
** MATERIALS
** 
*Material, name=MATERIAL-1
*Conductivity
150.,
*Density
7850.,
*Elastic
 2.1e+11, 0.3
*Expansion
 1e-05,
*Specific Heat
150.,
*Material, name=MATERIAL-2
*Conductivity
150.,
*Density
7850.,
*Elastic
 2.1e+11, 0.3
*Expansion
 1e-05,
*Specific Heat
150.,
*Material, name=MATERIAL-3
*Conductivity
150.,
*Density
7850.,
*Elastic
 2.1e+11, 0.3
*Expansion
 1e-05,
*Specific Heat
150.,
*Material, name=MATERIAL-4
*Conductivity
150.,
*Density
7850.,
*Elastic
 2.1e+11, 0.3
*Expansion
 1e-05,
*Specific Heat
150.,
*Material, name=MATERIAL-5
*Conductivity
150.,
*Density
7850.,
*Elastic
 2.1e+11, 0.3
*Expansion
 1e-05,
*Specific Heat
150.,
*Material, name=MATERIAL-6
*Conductivity
150.,
*Density
7850.,
*Elastic
 2.1e+11, 0.3
*Expansion
 1e-05,
*Specific Heat
150.,
*Material, name=MATERIAL-7
*Conductivity
150.,
*Density
7850.,
*Elastic
 2.1e+11, 0.3
*Expansion
 1e-05,
*Specific Heat
150.,
*Material, name=MATERIAL-8
*Conductivity
150.,
*Density
7850.,
*Elastic
 2.1e+11, 0.3
*Expansion
 1e-05,
*Specific Heat
150.,
*Material, name=MATERIAL-9
*Conductivity
150.,
*Density
7850.,
*Elastic
 2.1e+11, 0.3
*Expansion
 1e-05,
*Specific Heat
150.,
*Material, name=MATERIAL-10
*Conductivity
150.,
*Density
7850.,
*Elastic
 2.1e+11, 0.3
*Expansion
 1e-05,
*Specific Heat
150.,
*Material, name=MATERIAL-11
*Conductivity
150.,
*Density
7850.,
*Elastic
 2.1e+11, 0.3
*Expansion
 1e-05,
*Specific Heat
150.,
*Material, name=MATERIAL-12
*Conductivity
150.,
*Density
7850.,
*Elastic
 2.1e+11, 0.3
*Expansion
 1e-05,
*Specific Heat
150.,
*Material, name=MATERIAL-13
*Conductivity
150.,
*Density
7850.,
*Elastic
 2.1e+11, 0.3
*Expansion
 1e-05,
*Specific Heat
150.,
*Material, name=MATERIAL-14
*Conductivity
150.,
*Density
7850.,
*Elastic
 2.1e+11, 0.3
*Expansion
 1e-05,
*Specific Heat
150.,
*Material, name=MATERIAL-15
*Conductivity
150.,
*Density
7850.,
*Elastic
 2.1e+11, 0.3
*Expansion
 1e-05,
*Specific Heat
150.,
*Material, name=MATERIAL-16
*Conductivity
150.,
*Density
7850.,
*Elastic
 2.1e+11, 0.3
*Expansion
 1e-05,
*Specific Heat
150.,
*Material, name=MATERIAL-17
*Conductivity
150.,
*Density
7850.,
*Elastic
 2.1e+11, 0.3
*Expansion
 1e-05,
*Specific Heat
150.,
*Material, name=MATERIAL-18
*Conductivity
150.,
*Density
7850.,
*Elastic
 2.1e+11, 0.3
*Expansion
 1e-05,
*Specific Heat
150.,
*Material, name=MATERIAL-19
*Conductivity
150.,
*Density
7850.,
*Elastic
 2.1e+11, 0.3
*Expansion
 1e-05,
*Specific Heat
150.,
*Material, name=MATERIAL-20
*Conductivity
150.,
*Density
7850.,
*Elastic
 2.1e+11, 0.3
*Expansion
 1e-05,
*Specific Heat
150.,
*Material, name=MATERIAL-21
*Conductivity
150.,
*Density
7850.,
*Elastic
 2.1e+11, 0.3
*Expansion
 1e-05,
*Specific Heat
150.,
*Material, name=MATERIAL-22
*Conductivity
150.,
*Density
7850.,
*Elastic
 2.1e+11, 0.3
*Expansion
 1e-05,
*Specific Heat
150.,
*Material, name=MATERIAL-23
*Conductivity
150.,
*Density
7850.,
*Elastic
 2.1e+11, 0.3
*Expansion
 1e-05,
*Specific Heat
150.,
*Material, name=MATERIAL-24
*Conductivity
150.,
*Density
7850.,
*Elastic
 2.1e+11, 0.3
*Expansion
 1e-05,
*Specific Heat
150.,
*Material, name=MATERIAL-25
*Conductivity
150.,
*Density
7850.,
*Elastic
 2.1e+11, 0.3
*Expansion
 1e-05,
*Specific Heat
150.,
*Material, name=MATERIAL-26
*Conductivity
150.,
*Density
7850.,
*Elastic
 2.1e+11, 0.3
*Expansion
 1e-05,
*Specific Heat
150.,
*Material, name=MATERIAL-27
*Conductivity
150.,
*Density
7850.,
*Elastic
 2.1e+11, 0.3
*Expansion
 1e-05,
*Specific Heat
150.,
*Material, name=MATERIAL-28
*Conductivity
150.,
*Density
7850.,
*Elastic
 2.1e+11, 0.3
*Expansion
 1e-05,
*Specific Heat
150.,
*Material, name=MATERIAL-29
*Conductivity
150.,
*Density
7850.,
*Elastic
 2.1e+11, 0.3
*Expansion
 1e-05,
*Specific Heat
150.,
*Material, name=MATERIAL-30
*Conductivity
150.,
*Density
7850.,
*Elastic
 2.1e+11, 0.3
*Expansion
 1e-05,
*Specific Heat
150.,
*Material, name=MATERIAL-31
*Conductivity
150.,
*Density
7850.,
*Elastic
 2.1e+11, 0.3
*Expansion
 1e-05,
*Specific Heat
150.,
*Material, name=MATERIAL-32
*Conductivity
150.,
*Density
7850.,
*Elastic
 2.1e+11, 0.3
*Expansion
 1e-05,
*Specific Heat
150.,
*Material, name=MATERIAL-33
*Conductivity
150.,
*Density
7850.,
*Elastic
 2.1e+11, 0.3
*Expansion
 1e-05,
*Specific Heat
150.,
*Material, name=MATERIAL-34
*Conductivity
150.,
*Density
7850.,
*Elastic
 2.1e+11, 0.3
*Expansion
 1e-05,
*Specific Heat
150.,
*Material, name=MATERIAL-35
*Conductivity
150.,
*Density
7850.,
*Elastic
 2.1e+11, 0.3
*Expansion
 1e-05,
*Specific Heat
150.,
*Material, name=MATERIAL-36
*Conductivity
150.,
*Density
7850.,
*Elastic
 2.1e+11, 0.3
*Expansion
 1e-05,
*Specific Heat
150.,
*Material, name=MATERIAL-37
*Conductivity
150.,
*Density
7850.,
*Elastic
 2.1e+11, 0.3
*Expansion
 1e-05,
*Specific Heat
150.,
*Material, name=MATERIAL-38
*Conductivity
150.,
*Density
7850.,
*Elastic
 2.1e+11, 0.3
*Expansion
 1e-05,
*Specific Heat
150.,
*Material, name=MATERIAL-39
*Conductivity
150.,
*Density
7850.,
*Elastic
 2.1e+11, 0.3
*Expansion
 1e-05,
*Specific Heat
150.,
*Material, name=MATERIAL-40
*Conductivity
150.,
*Density
7850.,
*Elastic
 2.1e+11, 0.3
*Expansion
 1e-05,
*Specific Heat
150.,
*Material, name=MATERIAL-41
*Conductivity
150.,
*Density
7850.,
*Elastic
 2.1e+11, 0.3
*Expansion
 1e-05,
*Specific Heat
150.,
*Material, name=MATERIAL-42
*Conductivity
150.,
*Density
7850.,
*Elastic
 2.1e+11, 0.3
*Expansion
 1e-05,
*Specific Heat
150.,
*Material, name=MATERIAL-43
*Conductivity
150.,
*Density
7850.,
*Elastic
 2.1e+11, 0.3
*Expansion
 1e-05,
*Specific Heat
150.,
*Material, name=MATERIAL-44
*Conductivity
150.,
*Density
7850.,
*Elastic
 2.1e+11, 0.3
*Expansion
 1e-05,
*Specific Heat
150.,
*Material, name=MATERIAL-45
*Conductivity
150.,
*Density
7850.,
*Elastic
 2.1e+11, 0.3
*Expansion
 1e-05,
*Specific Heat
150.,
*Material, name=MATERIAL-46
*Conductivity
150.,
*Density
7850.,
*Elastic
 2.1e+11, 0.3
*Expansion
 1e-05,
*Specific Heat
150.,
*Material, name=MATERIAL-47
*Conductivity
150.,
*Density
7850.,
*Elastic
 2.1e+11, 0.3
*Expansion
 1e-05,
*Specific Heat
150.,
*Material, name=MATERIAL-48
*Conductivity
150.,
*Density
7850.,
*Elastic
 2.1e+11, 0.3
*Expansion
 1e-05,
*Specific Heat
150.,
*Material, name=MATERIAL-49
*Conductivity
150.,
*Density
7850.,
*Elastic
 2.1e+11, 0.3
*Expansion
 1e-05,
*Specific Heat
150.,
*Material, name=MATERIAL-50
*Conductivity
150.,
*Density
7850.,
*Elastic
 2.1e+11, 0.3
*Expansion
 1e-05,
*Specific Heat
150.,
*Material, name=MATERIAL-51
*Conductivity
150.,
*Density
7850.,
*Elastic
 2.1e+11, 0.3
*Expansion
 1e-05,
*Specific Heat
150.,
*Material, name=MATERIAL-52
*Conductivity
150.,
*Density
7850.,
*Elastic
 2.1e+11, 0.3
*Expansion
 1e-05,
*Specific Heat
150.,
*Material, name=MATERIAL-53
*Conductivity
150.,
*Density
7850.,
*Elastic
 2.1e+11, 0.3
*Expansion
 1e-05,
*Specific Heat
150.,
*Material, name=MATERIAL-54
*Conductivity
150.,
*Density
7850.,
*Elastic
 2.1e+11, 0.3
*Expansion
 1e-05,
*Specific Heat
150.,
*Material, name=MATERIAL-55
*Conductivity
150.,
*Density
7850.,
*Elastic
 2.1e+11, 0.3
*Expansion
 1e-05,
*Specific Heat
150.,
*Material, name=MATERIAL-56
*Conductivity
150.,
*Density
7850.,
*Elastic
 2.1e+11, 0.3
*Expansion
 1e-05,
*Specific Heat
150.,
*Material, name=MATERIAL-57
*Conductivity
150.,
*Density
7850.,
*Elastic
 2.1e+11, 0.3
*Expansion
 1e-05,
*Specific Heat
150.,
*Material, name=MATERIAL-58
*Conductivity
150.,
*Density
7850.,
*Elastic
 2.1e+11, 0.3
*Expansion
 1e-05,
*Specific Heat
150.,
*Material, name=MATERIAL-59
*Conductivity
150.,
*Density
7850.,
*Elastic
 2.1e+11, 0.3
*Expansion
 1e-05,
*Specific Heat
150.,
*Material, name=MATERIAL-60
*Conductivity
150.,
*Density
7850.,
*Elastic
 2.1e+11, 0.3
*Expansion
 1e-05,
*Specific Heat
150.,
*Material, name=MATERIAL-61
*Conductivity
150.,
*Density
7850.,
*Elastic
 2.1e+11, 0.3
*Expansion
 1e-05,
*Specific Heat
150.,
*Material, name=MATERIAL-62
*Conductivity
150.,
*Density
7850.,
*Elastic
 2.1e+11, 0.3
*Expansion
 1e-05,
*Specific Heat
150.,
*Material, name=MATERIAL-63
*Conductivity
150.,
*Density
7850.,
*Elastic
 2.1e+11, 0.3
*Expansion
 1e-05,
*Specific Heat
150.,
*Material, name=MATERIAL-64
*Conductivity
150.,
*Density
7850.,
*Elastic
 2.1e+11, 0.3
*Expansion
 1e-05,
*Specific Heat
150.,
*Material, name=MATERIAL-65
*Conductivity
150.,
*Density
7850.,
*Elastic
 2.1e+11, 0.3
*Expansion
 1e-05,
*Specific Heat
150.,
*Material, name=MATERIAL-66
*Conductivity
150.,
*Density
7850.,
*Elastic
 2.1e+11, 0.3
*Expansion
 1e-05,
*Specific Heat
150.,
*Material, name=MATERIAL-67
*Conductivity
150.,
*Density
7850.,
*Elastic
 2.1e+11, 0.3
*Expansion
 1e-05,
*Specific Heat
150.,
*Material, name=MATERIAL-68
*Conductivity
150.,
*Density
7850.,
*Elastic
 2.1e+11, 0.3
*Expansion
 1e-05,
*Specific Heat
150.,
*Material, name=MATERIAL-69
*Conductivity
150.,
*Density
7850.,
*Elastic
 2.1e+11, 0.3
*Expansion
 1e-05,
*Specific Heat
150.,
*Material, name=MATERIAL-70
*Conductivity
150.,
*Density
7850.,
*Elastic
 2.1e+11, 0.3
*Expansion
 1e-05,
*Specific Heat
150.,
*Material, name=MATERIAL-71
*Conductivity
150.,
*Density
7850.,
*Elastic
 2.1e+11, 0.3
*Expansion
 1e-05,
*Specific Heat
150.,
*Material, name=MATERIAL-72
*Conductivity
150.,
*Density
7850.,
*Elastic
 2.1e+11, 0.3
*Expansion
 1e-05,
*Specific Heat
150.,
*Material, name=MATERIAL-73
*Conductivity
150.,
*Density
7850.,
*Elastic
 2.1e+11, 0.3
*Expansion
 1e-05,
*Specific Heat
150.,
*Material, name=MATERIAL-74
*Conductivity
150.,
*Density
7850.,
*Elastic
 2.1e+11, 0.3
*Expansion
 1e-05,
*Specific Heat
150.,
*Material, name=MATERIAL-75
*Conductivity
150.,
*Density
7850.,
*Elastic
 2.1e+11, 0.3
*Expansion
 1e-05,
*Specific Heat
150.,
*Material, name=MATERIAL-76
*Conductivity
150.,
*Density
7850.,
*Elastic
 2.1e+11, 0.3
*Expansion
 1e-05,
*Specific Heat
150.,
*Material, name=MATERIAL-77
*Conductivity
150.,
*Density
7850.,
*Elastic
 2.1e+11, 0.3
*Expansion
 1e-05,
*Specific Heat
150.,
*Material, name=MATERIAL-78
*Conductivity
150.,
*Density
7850.,
*Elastic
 2.1e+11, 0.3
*Expansion
 1e-05,
*Specific Heat
150.,
*Material, name=MATERIAL-79
*Conductivity
150.,
*Density
7850.,
*Elastic
 2.1e+11, 0.3
*Expansion
 1e-05,
*Specific Heat
150.,
*Material, name=MATERIAL-80
*Conductivity
150.,
*Density
7850.,
*Elastic
 2.1e+11, 0.3
*Expansion
 1e-05,
*Specific Heat
150.,
*Material, name=MATERIAL-81
*Conductivity
150.,
*Density
7850.,
*Elastic
 2.1e+11, 0.3
*Expansion
 1e-05,
*Specific Heat
150.,
*Material, name=MATERIAL-82
*Conductivity
150.,
*Density
7850.,
*Elastic
 2.1e+11, 0.3
*Expansion
 1e-05,
*Specific Heat
150.,
*Material, name=MATERIAL-83
*Conductivity
150.,
*Density
7850.,
*Elastic
 2.1e+11, 0.3
*Expansion
 1e-05,
*Specific Heat
150.,
*Material, name=MATERIAL-84
*Conductivity
150.,
*Density
7850.,
*Elastic
 2.1e+11, 0.3
*Expansion
 1e-05,
*Specific Heat
150.,
*Material, name=MATERIAL-85
*Conductivity
150.,
*Density
7850.,
*Elastic
 2.1e+11, 0.3
*Expansion
 1e-05,
*Specific Heat
150.,
*Material, name=MATERIAL-86
*Conductivity
150.,
*Density
7850.,
*Elastic
 2.1e+11, 0.3
*Expansion
 1e-05,
*Specific Heat
150.,
*Material, name=MATERIAL-87
*Conductivity
150.,
*Density
7850.,
*Elastic
 2.1e+11, 0.3
*Expansion
 1e-05,
*Specific Heat
150.,
*Material, name=MATERIAL-88
*Conductivity
150.,
*Density
7850.,
*Elastic
 2.1e+11, 0.3
*Expansion
 1e-05,
*Specific Heat
150.,
*Material, name=MATERIAL-89
*Conductivity
150.,
*Density
7850.,
*Elastic
 2.1e+11, 0.3
*Expansion
 1e-05,
*Specific Heat
150.,
*Material, name=MATERIAL-90
*Conductivity
150.,
*Density
7850.,
*Elastic
 2.1e+11, 0.3
*Expansion
 1e-05,
*Specific Heat
150.,
*Material, name=MATERIAL-91
*Conductivity
150.,
*Density
7850.,
*Elastic
 2.1e+11, 0.3
*Expansion
 1e-05,
*Specific Heat
150.,
*Material, name=MATERIAL-92
*Conductivity
150.,
*Density
7850.,
*Elastic
 2.1e+11, 0.3
*Expansion
 1e-05,
*Specific Heat
150.,
*Material, name=MATERIAL-93
*Conductivity
150.,
*Density
7850.,
*Elastic
 2.1e+11, 0.3
*Expansion
 1e-05,
*Specific Heat
150.,
*Material, name=MATERIAL-94
*Conductivity
150.,
*Density
7850.,
*Elastic
 2.1e+11, 0.3
*Expansion
 1e-05,
*Specific Heat
150.,
*Material, name=MATERIAL-95
*Conductivity
150.,
*Density
7850.,
*Elastic
 2.1e+11, 0.3
*Expansion
 1e-05,
*Specific Heat
150.,
*Material, name=MATERIAL-96
*Conductivity
150.,
*Density
7850.,
*Elastic
 2.1e+11, 0.3
*Expansion
 1e-05,
*Specific Heat
150.,
*Material, name=MATERIAL-97
*Conductivity
150.,
*Density
7850.,
*Elastic
 2.1e+11, 0.3
*Expansion
 1e-05,
*Specific Heat
150.,
*Material, name=MATERIAL-98
*Conductivity
150.,
*Density
7850.,
*Elastic
 2.1e+11, 0.3
*Expansion
 1e-05,
*Specific Heat
150.,
*Material, name=MATERIAL-99
*Conductivity
150.,
*Density
7850.,
*Elastic
 2.1e+11, 0.3
*Expansion
 1e-05,
*Specific Heat
150.,
*Material, name=MATERIAL-100
*Conductivity
150.,
*Density
7850.,
*Elastic
 2.1e+11, 0.3
*Expansion
 1e-05,
*Specific Heat
150.,
*Material, name=MATERIAL-101
*Conductivity
150.,
*Density
7850.,
*Elastic
 2.1e+11, 0.3
*Expansion
 1e-05,
*Specific Heat
150.,
*Material, name=MATERIAL-102
*Conductivity
150.,
*Density
7850.,
*Elastic
 2.1e+11, 0.3
*Expansion
 1e-05,
*Specific Heat
150.,
*Material, name=MATERIAL-103
*Conductivity
150.,
*Density
7850.,
*Elastic
 2.1e+11, 0.3
*Expansion
 1e-05,
*Specific Heat
150.,
*Material, name=MATERIAL-104
*Conductivity
150.,
*Density
7850.,
*Elastic
 2.1e+11, 0.3
*Expansion
 1e-05,
*Specific Heat
150.,
*Material, name=MATERIAL-105
*Conductivity
150.,
*Density
7850.,
*Elastic
 2.1e+11, 0.3
*Expansion
 1e-05,
*Specific Heat
150.,
*Material, name=MATERIAL-106
*Conductivity
150.,
*Density
7850.,
*Elastic
 2.1e+11, 0.3
*Expansion
 1e-05,
*Specific Heat
150.,
*Material, name=MATERIAL-107
*Conductivity
150.,
*Density
7850.,
*Elastic
 2.1e+11, 0.3
*Expansion
 1e-05,
*Specific Heat
150.,
*Material, name=MATERIAL-108
*Conductivity
150.,
*Density
7850.,
*Elastic
 2.1e+11, 0.3
*Expansion
 1e-05,
*Specific Heat
150.,
*Material, name=MATERIAL-109
*Conductivity
150.,
*Density
7850.,
*Elastic
 2.1e+11, 0.3
*Expansion
 1e-05,
*Specific Heat
150.,
*Material, name=MATERIAL-110
*Conductivity
150.,
*Density
7850.,
*Elastic
 2.1e+11, 0.3
*Expansion
 1e-05,
*Specific Heat
150.,
*Material, name=MATERIAL-111
*Conductivity
150.,
*Density
7850.,
*Elastic
 2.1e+11, 0.3
*Expansion
 1e-05,
*Specific Heat
150.,
*Material, name=MATERIAL-112
*Conductivity
150.,
*Density
7850.,
*Elastic
 2.1e+11, 0.3
*Expansion
 1e-05,
*Specific Heat
150.,
*Material, name=MATERIAL-113
*Conductivity
150.,
*Density
7850.,
*Elastic
 2.1e+11, 0.3
*Expansion
 1e-05,
*Specific Heat
150.,
*Material, name=MATERIAL-114
*Conductivity
150.,
*Density
7850.,
*Elastic
 2.1e+11, 0.3
*Expansion
 1e-05,
*Specific Heat
150.,
*Material, name=MATERIAL-115
*Conductivity
150.,
*Density
7850.,
*Elastic
 2.1e+11, 0.3
*Expansion
 1e-05,
*Specific Heat
150.,
*Material, name=MATERIAL-116
*Conductivity
150.,
*Density
7850.,
*Elastic
 2.1e+11, 0.3
*Expansion
 1e-05,
*Specific Heat
150.,
*Material, name=MATERIAL-117
*Conductivity
150.,
*Density
7850.,
*Elastic
 2.1e+11, 0.3
*Expansion
 1e-05,
*Specific Heat
150.,
*Material, name=MATERIAL-118
*Conductivity
150.,
*Density
7850.,
*Elastic
 2.1e+11, 0.3
*Expansion
 1e-05,
*Specific Heat
150.,
*Material, name=MATERIAL-119
*Conductivity
150.,
*Density
7850.,
*Elastic
 2.1e+11, 0.3
*Expansion
 1e-05,
*Specific Heat
150.,
*Material, name=MATERIAL-120
*Conductivity
150.,
*Density
7850.,
*Elastic
 2.1e+11, 0.3
*Expansion
 1e-05,
*Specific Heat
150.,
*Material, name=MATERIAL-121
*Conductivity
150.,
*Density
7850.,
*Elastic
 2.1e+11, 0.3
*Expansion
 1e-05,
*Specific Heat
150.,
*Material, name=MATERIAL-122
*Conductivity
150.,
*Density
7850.,
*Elastic
 2.1e+11, 0.3
*Expansion
 1e-05,
*Specific Heat
150.,
*Material, name=MATERIAL-123
*Conductivity
150.,
*Density
7850.,
*Elastic
 2.1e+11, 0.3
*Expansion
 1e-05,
*Specific Heat
150.,
*Material, name=MATERIAL-124
*Conductivity
150.,
*Density
7850.,
*Elastic
 2.1e+11, 0.3
*Expansion
 1e-05,
*Specific Heat
150.,
*Material, name=MATERIAL-125
*Conductivity
150.,
*Density
7850.,
*Elastic
 2.1e+11, 0.3
*Expansion
 1e-05,
*Specific Heat
150.,
*Material, name=MATERIAL-126
*Conductivity
150.,
*Density
7850.,
*Elastic
 2.1e+11, 0.3
*Expansion
 1e-05,
*Specific Heat
150.,
*Material, name=MATERIAL-127
*Conductivity
150.,
*Density
7850.,
*Elastic
 2.1e+11, 0.3
*Expansion
 1e-05,
*Specific Heat
150.,
*Material, name=MATERIAL-128
*Conductivity
150.,
*Density
7850.,
*Elastic
 2.1e+11, 0.3
*Expansion
 1e-05,
*Specific Heat
150.,
*Material, name=MATERIAL-129
*Conductivity
150.,
*Density
7850.,
*Elastic
 2.1e+11, 0.3
*Expansion
 1e-05,
*Specific Heat
150.,
*Material, name=MATERIAL-130
*Conductivity
150.,
*Density
7850.,
*Elastic
 2.1e+11, 0.3
*Expansion
 1e-05,
*Specific Heat
150.,
*Material, name=MATERIAL-131
*Conductivity
150.,
*Density
7850.,
*Elastic
 2.1e+11, 0.3
*Expansion
 1e-05,
*Specific Heat
150.,
*Material, name=MATERIAL-132
*Conductivity
150.,
*Density
7850.,
*Elastic
 2.1e+11, 0.3
*Expansion
 1e-05,
*Specific Heat
150.,
*Material, name=MATERIAL-133
*Conductivity
150.,
*Density
7850.,
*Elastic
 2.1e+11, 0.3
*Expansion
 1e-05,
*Specific Heat
150.,
*Material, name=MATERIAL-134
*Conductivity
150.,
*Density
7850.,
*Elastic
 2.1e+11, 0.3
*Expansion
 1e-05,
*Specific Heat
150.,
*Material, name=MATERIAL-135
*Conductivity
150.,
*Density
7850.,
*Elastic
 2.1e+11, 0.3
*Expansion
 1e-05,
*Specific Heat
150.,
*Material, name=MATERIAL-136
*Conductivity
150.,
*Density
7850.,
*Elastic
 2.1e+11, 0.3
*Expansion
 1e-05,
*Specific Heat
150.,
*Material, name=MATERIAL-137
*Conductivity
150.,
*Density
7850.,
*Elastic
 2.1e+11, 0.3
*Expansion
 1e-05,
*Specific Heat
150.,
*Material, name=MATERIAL-138
*Conductivity
150.,
*Density
7850.,
*Elastic
 2.1e+11, 0.3
*Expansion
 1e-05,
*Specific Heat
150.,
*Material, name=MATERIAL-139
*Conductivity
150.,
*Density
7850.,
*Elastic
 2.1e+11, 0.3
*Expansion
 1e-05,
*Specific Heat
150.,
*Material, name=MATERIAL-140
*Conductivity
150.,
*Density
7850.,
*Elastic
 2.1e+11, 0.3
*Expansion
 1e-05,
*Specific Heat
150.,
*Material, name=MATERIAL-141
*Conductivity
150.,
*Density
7850.,
*Elastic
 2.1e+11, 0.3
*Expansion
 1e-05,
*Specific Heat
150.,
*Material, name=MATERIAL-142
*Conductivity
150.,
*Density
7850.,
*Elastic
 2.1e+11, 0.3
*Expansion
 1e-05,
*Specific Heat
150.,
*Material, name=MATERIAL-143
*Conductivity
150.,
*Density
7850.,
*Elastic
 2.1e+11, 0.3
*Expansion
 1e-05,
*Specific Heat
150.,
*Material, name=MATERIAL-144
*Conductivity
150.,
*Density
7850.,
*Elastic
 2.1e+11, 0.3
*Expansion
 1e-05,
*Specific Heat
150.,
*Material, name=MATERIAL-145
*Conductivity
150.,
*Density
7850.,
*Elastic
 2.1e+11, 0.3
*Expansion
 1e-05,
*Specific Heat
150.,
*Material, name=MATERIAL-146
*Conductivity
150.,
*Density
7850.,
*Elastic
 2.1e+11, 0.3
*Expansion
 1e-05,
*Specific Heat
150.,
*Material, name=MATERIAL-147
*Conductivity
150.,
*Density
7850.,
*Elastic
 2.1e+11, 0.3
*Expansion
 1e-05,
*Specific Heat
150.,
*Material, name=MATERIAL-148
*Conductivity
150.,
*Density
7850.,
*Elastic
 2.1e+11, 0.3
*Expansion
 1e-05,
*Specific Heat
150.,
*Material, name=MATERIAL-149
*Conductivity
150.,
*Density
7850.,
*Elastic
 2.1e+11, 0.3
*Expansion
 1e-05,
*Specific Heat
150.,
*Material, name=MATERIAL-150
*Conductivity
150.,
*Density
7850.,
*Elastic
 2.1e+11, 0.3
*Expansion
 1e-05,
*Specific Heat
150.,
*Material, name=MATERIAL-151
*Conductivity
150.,
*Density
7850.,
*Elastic
 2.1e+11, 0.3
*Expansion
 1e-05,
*Specific Heat
150.,
*Material, name=MATERIAL-152
*Conductivity
150.,
*Density
7850.,
*Elastic
 2.1e+11, 0.3
*Expansion
 1e-05,
*Specific Heat
150.,
*Material, name=MATERIAL-153
*Conductivity
150.,
*Density
7850.,
*Elastic
 2.1e+11, 0.3
*Expansion
 1e-05,
*Specific Heat
150.,
*Material, name=MATERIAL-154
*Conductivity
150.,
*Density
7850.,
*Elastic
 2.1e+11, 0.3
*Expansion
 1e-05,
*Specific Heat
150.,
*Material, name=MATERIAL-155
*Conductivity
150.,
*Density
7850.,
*Elastic
 2.1e+11, 0.3
*Expansion
 1e-05,
*Specific Heat
150.,
*Material, name=MATERIAL-156
*Conductivity
150.,
*Density
7850.,
*Elastic
 2.1e+11, 0.3
*Expansion
 1e-05,
*Specific Heat
150.,
*Material, name=MATERIAL-157
*Conductivity
150.,
*Density
7850.,
*Elastic
 2.1e+11, 0.3
*Expansion
 1e-05,
*Specific Heat
150.,
*Material, name=MATERIAL-158
*Conductivity
150.,
*Density
7850.,
*Elastic
 2.1e+11, 0.3
*Expansion
 1e-05,
*Specific Heat
150.,
*Material, name=MATERIAL-159
*Conductivity
150.,
*Density
7850.,
*Elastic
 2.1e+11, 0.3
*Expansion
 1e-05,
*Specific Heat
150.,
*Material, name=MATERIAL-160
*Conductivity
150.,
*Density
7850.,
*Elastic
 2.1e+11, 0.3
*Expansion
 1e-05,
*Specific Heat
150.,
*Material, name=MATERIAL-161
*Conductivity
150.,
*Density
7850.,
*Elastic
 2.1e+11, 0.3
*Expansion
 1e-05,
*Specific Heat
150.,
*Material, name=MATERIAL-162
*Conductivity
150.,
*Density
7850.,
*Elastic
 2.1e+11, 0.3
*Expansion
 1e-05,
*Specific Heat
150.,
*Material, name=MATERIAL-163
*Conductivity
150.,
*Density
7850.,
*Elastic
 2.1e+11, 0.3
*Expansion
 1e-05,
*Specific Heat
150.,
*Material, name=MATERIAL-164
*Conductivity
150.,
*Density
7850.,
*Elastic
 2.1e+11, 0.3
*Expansion
 1e-05,
*Specific Heat
150.,
*Material, name=MATERIAL-165
*Conductivity
150.,
*Density
7850.,
*Elastic
 2.1e+11, 0.3
*Expansion
 1e-05,
*Specific Heat
150.,
*Material, name=MATERIAL-166
*Conductivity
150.,
*Density
7850.,
*Elastic
 2.1e+11, 0.3
*Expansion
 1e-05,
*Specific Heat
150.,
*Material, name=MATERIAL-167
*Conductivity
150.,
*Density
7850.,
*Elastic
 2.1e+11, 0.3
*Expansion
 1e-05,
*Specific Heat
150.,
*Material, name=MATERIAL-168
*Conductivity
150.,
*Density
7850.,
*Elastic
 2.1e+11, 0.3
*Expansion
 1e-05,
*Specific Heat
150.,
*Material, name=MATERIAL-169
*Conductivity
150.,
*Density
7850.,
*Elastic
 2.1e+11, 0.3
*Expansion
 1e-05,
*Specific Heat
150.,
*Material, name=MATERIAL-170
*Conductivity
150.,
*Density
7850.,
*Elastic
 2.1e+11, 0.3
*Expansion
 1e-05,
*Specific Heat
150.,
*Material, name=MATERIAL-171
*Conductivity
150.,
*Density
7850.,
*Elastic
 2.1e+11, 0.3
*Expansion
 1e-05,
*Specific Heat
150.,
*Material, name=MATERIAL-172
*Conductivity
150.,
*Density
7850.,
*Elastic
 2.1e+11, 0.3
*Expansion
 1e-05,
*Specific Heat
150.,
*Material, name=MATERIAL-173
*Conductivity
150.,
*Density
7850.,
*Elastic
 2.1e+11, 0.3
*Expansion
 1e-05,
*Specific Heat
150.,
*Material, name=MATERIAL-174
*Conductivity
150.,
*Density
7850.,
*Elastic
 2.1e+11, 0.3
*Expansion
 1e-05,
*Specific Heat
150.,
*Material, name=MATERIAL-175
*Conductivity
150.,
*Density
7850.,
*Elastic
 2.1e+11, 0.3
*Expansion
 1e-05,
*Specific Heat
150.,
*Material, name=MATERIAL-176
*Conductivity
150.,
*Density
7850.,
*Elastic
 2.1e+11, 0.3
*Expansion
 1e-05,
*Specific Heat
150.,
*Material, name=MATERIAL-177
*Conductivity
150.,
*Density
7850.,
*Elastic
 2.1e+11, 0.3
*Expansion
 1e-05,
*Specific Heat
150.,
*Material, name=MATERIAL-178
*Conductivity
150.,
*Density
7850.,
*Elastic
 2.1e+11, 0.3
*Expansion
 1e-05,
*Specific Heat
150.,
*Material, name=MATERIAL-179
*Conductivity
150.,
*Density
7850.,
*Elastic
 2.1e+11, 0.3
*Expansion
 1e-05,
*Specific Heat
150.,
*Material, name=MATERIAL-180
*Conductivity
150.,
*Density
7850.,
*Elastic
 2.1e+11, 0.3
*Expansion
 1e-05,
*Specific Heat
150.,
*Material, name=MATERIAL-181
*Conductivity
150.,
*Density
7850.,
*Elastic
 2.1e+11, 0.3
*Expansion
 1e-05,
*Specific Heat
150.,
*Material, name=MATERIAL-182
*Conductivity
150.,
*Density
7850.,
*Elastic
 2.1e+11, 0.3
*Expansion
 1e-05,
*Specific Heat
150.,
*Material, name=MATERIAL-183
*Conductivity
150.,
*Density
7850.,
*Elastic
 2.1e+11, 0.3
*Expansion
 1e-05,
*Specific Heat
150.,
*Material, name=MATERIAL-184
*Conductivity
150.,
*Density
7850.,
*Elastic
 2.1e+11, 0.3
*Expansion
 1e-05,
*Specific Heat
150.,
** 
** BOUNDARY CONDITIONS
** 
** Name: Disp-BC-1 Type: Symmetry/Antisymmetry/Encastre
*Boundary
_PICKEDSET205, ENCASTRE
** ----------------------------------------------------------------
** 
** STEP: Step-1
** 
*Step, name=Step-1, nlgeom=NO
*Coupled Temperature-displacement, creep=none, deltmx=10.
0.1, 0.1, 1e-06, 0.1
** 
** LOADS
** 
** Name: CFORCE-1   Type: Concentrated force
*Cload
SET-191, 1, 100.
** Name: CFORCE-2   Type: Concentrated force
*Cload
SET-192, 1, 100.
** Name: CFORCE-3   Type: Concentrated force
*Cload
SET-193, 1, -100.
** 
** OUTPUT REQUESTS
** 
*Restart, write, frequency=0
** 
** FIELD OUTPUT: F-Output-1
** 
*Output, field, variable=PRESELECT, number interval=100
** 
** HISTORY OUTPUT: H-Output-1
** 
*Output, history, variable=PRESELECT
*End Step
