!! ANSYS Input Deck Generated by HyperMesh Version  : 2019.0.0.70
!! Generated using HyperMesh-Ansys Template Version : 2019.0.0.70
/PREP7
*IF,_CDRDOFF,EQ,1,THEN     !if solid model was read in
_CDRDOFF=             !reset flag, numoffs already performed
*ELSE              !offset database for the following FE model
NUMOFF,NODE,    4797
NUMOFF,ELEM,    5104
NUMOFF,MAT,       2
NUMOFF,REAL,      29
NUMOFF,TYPE,       1
*ENDIF
NBLOCK,6,SOLID
(3i8,6e16.9)
       1       0       0           140.0 -4.88807387E-13 -1.70666187E-27 
       2       0       0           135.0 -4.71349981E-13 -1.64570966E-27 
       3       0       0           135.0            -5.0 -1.74574067E-14 
       4       0       0           140.0            -5.0 -1.74574067E-14 
       5       0       0           140.0            -2.5      1.90903175 
       6       0       0           135.0            -2.5      1.90903175 
       7       0       0           135.0           -1.25      0.99989152 
       8       0       0           140.0           -1.25      0.99989152 
       9       0       0           140.0 2.4999999999995      1.90903175 
      10       0       0           135.0 2.4999999999995      1.90903175 
      11       0       0           135.0 3.9999999999995             3.0 
      12       0       0           140.0 3.9999999999995             3.0 
      13       0       0           135.0 4.9999999999995             3.0 
      14       0       0           135.0 4.9999999999995 1.745740669E-14 
      15       0       0           140.0 4.9999999999995 1.745740669E-14 
      16       0       0           140.0 4.9999999999995             3.0 
      17       0       0           135.0            -5.0             3.0 
      18       0       0           140.0            -5.0             3.0 
      19       0       0           135.0            -4.0             3.0 
      20       0       0           140.0            -4.0             3.0 
! ... 4777 like lines cut
N,R5.3,LOC,     -1,
!!HMNAME MAT 
!!         1 "Material-29"
MPTEMP,2,             1.0,             0.0
MP,EX  ,1,  210000000000.0
MP,NUXY,1,             0.3
!!HMNAME ET 
!!         1 "shell181"
ET,1,181
!!HMNAME PROP 
!!         1 "final-1.Set-29"
!!HMNAME PROP 
!!         2 "final-1.Set-28"
!!HMNAME PROP 
!!         3 "final-1.Set-27"
!!HMNAME PROP 
!!         4 "final-1.Set-26"
!!HMNAME PROP 
!!         5 "final-1.Set-25"
!!HMNAME PROP 
!!         6 "final-1.Set-24"
!!HMNAME PROP 
!!         7 "final-1.Set-23"
!!HMNAME PROP 
!!         8 "final-1.Set-22"
!!HMNAME PROP 
!!         9 "final-1.Set-21"
!!HMNAME PROP 
!!        10 "final-1.Set-20"
!!HMNAME PROP 
!!        11 "final-1.Set-19"
!!HMNAME PROP 
!!        12 "final-1.Set-18"
!!HMNAME PROP 
!!        13 "final-1.Set-17"
!!HMNAME PROP 
!!        14 "final-1.Set-16"
!!HMNAME PROP 
!!        15 "final-1.Set-15"
!!HMNAME PROP 
!!        16 "final-1.Set-14"
!!HMNAME PROP 
!!        17 "final-1.Set-13"
!!HMNAME PROP 
!!        18 "final-1.Set-12"
!!HMNAME PROP 
!!        19 "final-1.Set-11"
!!HMNAME PROP 
!!        20 "final-1.Set-10"
!!HMNAME PROP 
!!        21 "final-1.Set-9"
!!HMNAME PROP 
!!        22 "final-1.Set-8"
!!HMNAME PROP 
!!        23 "final-1.Set-7"
!!HMNAME PROP 
!!        24 "final-1.Set-6"
!!HMNAME PROP 
!!        25 "final-1.Set-5"
!!HMNAME PROP 
!!        26 "final-1.Set-4"
!!HMNAME PROP 
!!        27 "final-1.Set-3"
!!HMNAME PROP 
!!        28 "final-1.Set-2"
!!HMNAME PROP 
!!        29 "final-1.Set-1"
RLBLOCK,      29,      29,      12,       7
(2i8,6g16.9)
(7g16.9)
       1      12            0.03             0.0             0.0             0.0             0.0             0.0
             0.0             0.0             0.0             0.0             0.0             0.0
       2      12            0.03             0.0             0.0             0.0             0.0             0.0
             0.0             0.0             0.0             0.0             0.0             0.0
       3      12            0.03             0.0             0.0             0.0             0.0             0.0
             0.0             0.0             0.0             0.0             0.0             0.0
       4      12            0.03             0.0             0.0             0.0             0.0             0.0
             0.0             0.0             0.0             0.0             0.0             0.0
       5      12            0.03             0.0             0.0             0.0             0.0             0.0
             0.0             0.0             0.0             0.0             0.0             0.0
       6      12            0.03             0.0             0.0             0.0             0.0             0.0
             0.0             0.0             0.0             0.0             0.0             0.0
       7      12            0.03             0.0             0.0             0.0             0.0             0.0
             0.0             0.0             0.0             0.0             0.0             0.0
       8      12            0.03             0.0             0.0             0.0             0.0             0.0
             0.0             0.0             0.0             0.0             0.0             0.0
       9      12            0.03             0.0             0.0             0.0             0.0             0.0
             0.0             0.0             0.0             0.0             0.0             0.0
      10      12            0.03             0.0             0.0             0.0             0.0             0.0
             0.0             0.0             0.0             0.0             0.0             0.0
! ... 38 like lines cut
!!HMNAME COMP 
!!   1-1-12 11 "final-1.Set-18"
!!HWCOLOR COMP 
!!   1-1-12 21
TYPE, 1  $ MAT, 1  $ REAL, 12
EBLOCK,19,SOLID,        
(19i8)
       1       1      12       0       0       0       0       0       4       0    1937     155    1207    3340    1141
       1       1      12       0       0       0       0       0       4       0    1938    1207    1208    3341    3340
       1       1      12       0       0       0       0       0       4       0    1939    1208    1209    3342    3341
       1       1      12       0       0       0       0       0       4       0    1940    1209     169    1210    3342
       1       1      12       0       0       0       0       0       4       0    1941    1141    3340    3343    1142
       1       1      12       0       0       0       0       0       4       0    1942    3340    3341    3344    3343
       1       1      12       0       0       0       0       0       4       0    1943    3341    3342    3345    3344
       1       1      12       0       0       0       0       0       4       0    1944    3342    1210    1211    3345
       1       1      12       0       0       0       0       0       4       0    1945    1142    3343    3346    1143
       1       1      12       0       0       0       0       0       4       0    1946    3343    3344    3347    3346
       1       1      12       0       0       0       0       0       4       0    1947    3344    3345    3348    3347
       1       1      12       0       0       0       0       0       4       0    1948    3345    1211    1212    3348
       1       1      12       0       0       0       0       0       4       0    1949    1143    3346    1215     156
       1       1      12       0       0       0       0       0       4       0    1950    3346    3347    1214    1215
       1       1      12       0       0       0       0       0       4       0    1951    3347    3348    1213    1214
       1       1      12       0       0       0       0       0       4       0    1952    3348    1212     170    1213
       1       1      12       0       0       0       0       0       4       0    1953     157    1216    3349    1150
       1       1      12       0       0       0       0       0       4       0    1954    1216    1217    3350    3349
       1       1      12       0       0       0       0       0       4       0    1955    1217    1218    3351    3350
       1       1      12       0       0       0       0       0       4       0    1956    1218     171    1219    3351
! ... 157 like lines cut
CM, final-1.Set-18, ELEM
ESEL, NONE
!!HMNAME COMP 
!!   1-1-13 10 "final-1.Set-17"
!!HWCOLOR COMP 
!!   1-1-13 20
TYPE, 1  $ MAT, 1  $ REAL, 13
EBLOCK,19,SOLID,        
(19i8)
       1       1      13       0       0       0       0       0       4       0    2113     169    1276    3421    1210
       1       1      13       0       0       0       0       0       4       0    2114    1276    1277    3422    3421
       1       1      13       0       0       0       0       0       4       0    2115    1277    1278    3423    3422
       1       1      13       0       0       0       0       0       4       0    2116    1278     183    1279    3423
       1       1      13       0       0       0       0       0       4       0    2117    1210    3421    3424    1211
       1       1      13       0       0       0       0       0       4       0    2118    3421    3422    3425    3424
       1       1      13       0       0       0       0       0       4       0    2119    3422    3423    3426    3425
       1       1      13       0       0       0       0       0       4       0    2120    3423    1279    1280    3426
       1       1      13       0       0       0       0       0       4       0    2121    1211    3424    3427    1212
       1       1      13       0       0       0       0       0       4       0    2122    3424    3425    3428    3427
       1       1      13       0       0       0       0       0       4       0    2123    3425    3426    3429    3428
       1       1      13       0       0       0       0       0       4       0    2124    3426    1280    1281    3429
       1       1      13       0       0       0       0       0       4       0    2125    1212    3427    1284     170
       1       1      13       0       0       0       0       0       4       0    2126    3427    3428    1283    1284
       1       1      13       0       0       0       0       0       4       0    2127    3428    3429    1282    1283
       1       1      13       0       0       0       0       0       4       0    2128    3429    1281     184    1282
       1       1      13       0       0       0       0       0       4       0    2129     171    1285    3430    1219
       1       1      13       0       0       0       0       0       4       0    2130    1285    1286    3431    3430
       1       1      13       0       0       0       0       0       4       0    2131    1286    1287    3432    3431
       1       1      13       0       0       0       0       0       4       0    2132    1287     185    1288    3432
! ... 157 like lines cut
CM, final-1.Set-17, ELEM
ESEL, NONE
!!HMNAME COMP 
!!   1-1-14 9 "final-1.Set-16"
!!HWCOLOR COMP 
!!   1-1-14 17
TYPE, 1  $ MAT, 1  $ REAL, 14
EBLOCK,19,SOLID,        
(19i8)
       1       1      14       0       0       0       0       0       4       0    2289     183    1345    3502    1279
       1       1      14       0       0       0       0       0       4       0    2290    1345    1346    3503    3502
       1       1      14       0       0       0       0       0       4       0    2291    1346    1347    3504    3503
       1       1      14       0       0       0       0       0       4       0    2292    1347     197    1348    3504
       1       1      14       0       0       0       0       0       4       0    2293    1279    3502    3505    1280
       1       1      14       0       0       0       0       0       4       0    2294    3502    3503    3506    3505
       1       1      14       0       0       0       0       0       4       0    2295    3503    3504    3507    3506
       1       1      14       0       0       0       0       0       4       0    2296    3504    1348    1349    3507
       1       1      14       0       0       0       0       0       4       0    2297    1280    3505    3508    1281
       1       1      14       0       0       0       0       0       4       0    2298    3505    3506    3509    3508
       1       1      14       0       0       0       0       0       4       0    2299    3506    3507    3510    3509
       1       1      14       0       0       0       0       0       4       0    2300    3507    1349    1350    3510
       1       1      14       0       0       0       0       0       4       0    2301    1281    3508    1353     184
       1       1      14       0       0       0       0       0       4       0    2302    3508    3509    1352    1353
       1       1      14       0       0       0       0       0       4       0    2303    3509    3510    1351    1352
       1       1      14       0       0       0       0       0       4       0    2304    3510    1350     198    1351
       1       1      14       0       0       0       0       0       4       0    2305     185    1354    3511    1288
       1       1      14       0       0       0       0       0       4       0    2306    1354    1355    3512    3511
       1       1      14       0       0       0       0       0       4       0    2307    1355    1356    3513    3512
       1       1      14       0       0       0       0       0       4       0    2308    1356     199    1357    3513
! ... 157 like lines cut
CM, final-1.Set-16, ELEM
ESEL, NONE
!!HMNAME COMP 
!!   1-1-15 8 "final-1.Set-15"
!!HWCOLOR COMP 
!!   1-1-15 13
TYPE, 1  $ MAT, 1  $ REAL, 15
EBLOCK,19,SOLID,        
(19i8)
       1       1      15       0       0       0       0       0       4       0    2465     197    1414    3583    1348
       1       1      15       0       0       0       0       0       4       0    2466    1414    1415    3584    3583
       1       1      15       0       0       0       0       0       4       0    2467    1415    1416    3585    3584
       1       1      15       0       0       0       0       0       4       0    2468    1416     211    1417    3585
       1       1      15       0       0       0       0       0       4       0    2469    1348    3583    3586    1349
       1       1      15       0       0       0       0       0       4       0    2470    3583    3584    3587    3586
       1       1      15       0       0       0       0       0       4       0    2471    3584    3585    3588    3587
       1       1      15       0       0       0       0       0       4       0    2472    3585    1417    1418    3588
       1       1      15       0       0       0       0       0       4       0    2473    1349    3586    3589    1350
       1       1      15       0       0       0       0       0       4       0    2474    3586    3587    3590    3589
       1       1      15       0       0       0       0       0       4       0    2475    3587    3588    3591    3590
       1       1      15       0       0       0       0       0       4       0    2476    3588    1418    1419    3591
       1       1      15       0       0       0       0       0       4       0    2477    1350    3589    1422     198
       1       1      15       0       0       0       0       0       4       0    2478    3589    3590    1421    1422
       1       1      15       0       0       0       0       0       4       0    2479    3590    3591    1420    1421
       1       1      15       0       0       0       0       0       4       0    2480    3591    1419     212    1420
       1       1      15       0       0       0       0       0       4       0    2481     199    1423    3592    1357
       1       1      15       0       0       0       0       0       4       0    2482    1423    1424    3593    3592
       1       1      15       0       0       0       0       0       4       0    2483    1424    1425    3594    3593
       1       1      15       0       0       0       0       0       4       0    2484    1425     213    1426    3594
! ... 157 like lines cut
CM, final-1.Set-15, ELEM
ESEL, NONE
!!HMNAME COMP 
!!   1-1-16 7 "final-1.Set-14"
!!HWCOLOR COMP 
!!   1-1-16 9
TYPE, 1  $ MAT, 1  $ REAL, 16
EBLOCK,19,SOLID,        
(19i8)
       1       1      16       0       0       0       0       0       4       0    2641     211    1483    3664    1417
       1       1      16       0       0       0       0       0       4       0    2642    1483    1484    3665    3664
       1       1      16       0       0       0       0       0       4       0    2643    1484    1485    3666    3665
       1       1      16       0       0       0       0       0       4       0    2644    1485     225    1486    3666
       1       1      16       0       0       0       0       0       4       0    2645    1417    3664    3667    1418
       1       1      16       0       0       0       0       0       4       0    2646    3664    3665    3668    3667
       1       1      16       0       0       0       0       0       4       0    2647    3665    3666    3669    3668
       1       1      16       0       0       0       0       0       4       0    2648    3666    1486    1487    3669
       1       1      16       0       0       0       0       0       4       0    2649    1418    3667    3670    1419
       1       1      16       0       0       0       0       0       4       0    2650    3667    3668    3671    3670
       1       1      16       0       0       0       0       0       4       0    2651    3668    3669    3672    3671
       1       1      16       0       0       0       0       0       4       0    2652    3669    1487    1488    3672
       1       1      16       0       0       0       0       0       4       0    2653    1419    3670    1491     212
       1       1      16       0       0       0       0       0       4       0    2654    3670    3671    1490    1491
       1       1      16       0       0       0       0       0       4       0    2655    3671    3672    1489    1490
       1       1      16       0       0       0       0       0       4       0    2656    3672    1488     226    1489
       1       1      16       0       0       0       0       0       4       0    2657     213    1492    3673    1426
       1       1      16       0       0       0       0       0       4       0    2658    1492    1493    3674    3673
       1       1      16       0       0       0       0       0       4       0    2659    1493    1494    3675    3674
       1       1      16       0       0       0       0       0       4       0    2660    1494     227    1495    3675
! ... 157 like lines cut
CM, final-1.Set-14, ELEM
ESEL, NONE
!!HMNAME COMP 
!!   1-1-17 6 "final-1.Set-13"
!!HWCOLOR COMP 
!!   1-1-17 8
TYPE, 1  $ MAT, 1  $ REAL, 17
EBLOCK,19,SOLID,        
(19i8)
       1       1      17       0       0       0       0       0       4       0    2817     225    1552    3745    1486
       1       1      17       0       0       0       0       0       4       0    2818    1552    1553    3746    3745
       1       1      17       0       0       0       0       0       4       0    2819    1553    1554    3747    3746
       1       1      17       0       0       0       0       0       4       0    2820    1554     239    1555    3747
       1       1      17       0       0       0       0       0       4       0    2821    1486    3745    3748    1487
       1       1      17       0       0       0       0       0       4       0    2822    3745    3746    3749    3748
       1       1      17       0       0       0       0       0       4       0    2823    3746    3747    3750    3749
       1       1      17       0       0       0       0       0       4       0    2824    3747    1555    1556    3750
       1       1      17       0       0       0       0       0       4       0    2825    1487    3748    3751    1488
       1       1      17       0       0       0       0       0       4       0    2826    3748    3749    3752    3751
       1       1      17       0       0       0       0       0       4       0    2827    3749    3750    3753    3752
       1       1      17       0       0       0       0       0       4       0    2828    3750    1556    1557    3753
       1       1      17       0       0       0       0       0       4       0    2829    1488    3751    1560     226
       1       1      17       0       0       0       0       0       4       0    2830    3751    3752    1559    1560
       1       1      17       0       0       0       0       0       4       0    2831    3752    3753    1558    1559
       1       1      17       0       0       0       0       0       4       0    2832    3753    1557     240    1558
       1       1      17       0       0       0       0       0       4       0    2833     227    1561    3754    1495
       1       1      17       0       0       0       0       0       4       0    2834    1561    1562    3755    3754
       1       1      17       0       0       0       0       0       4       0    2835    1562    1563    3756    3755
       1       1      17       0       0       0       0       0       4       0    2836    1563     241    1564    3756
! ... 157 like lines cut
CM, final-1.Set-13, ELEM
ESEL, NONE
!!HMNAME COMP 
!!   1-1-18 5 "final-1.Set-12"
!!HWCOLOR COMP 
!!   1-1-18 7
TYPE, 1  $ MAT, 1  $ REAL, 18
EBLOCK,19,SOLID,        
(19i8)
       1       1      18       0       0       0       0       0       4       0    2993     239    1621    3826    1555
       1       1      18       0       0       0       0       0       4       0    2994    1621    1622    3827    3826
       1       1      18       0       0       0       0       0       4       0    2995    1622    1623    3828    3827
       1       1      18       0       0       0       0       0       4       0    2996    1623     253    1624    3828
       1       1      18       0       0       0       0       0       4       0    2997    1555    3826    3829    1556
       1       1      18       0       0       0       0       0       4       0    2998    3826    3827    3830    3829
       1       1      18       0       0       0       0       0       4       0    2999    3827    3828    3831    3830
       1       1      18       0       0       0       0       0       4       0    3000    3828    1624    1625    3831
       1       1      18       0       0       0       0       0       4       0    3001    1556    3829    3832    1557
       1       1      18       0       0       0       0       0       4       0    3002    3829    3830    3833    3832
       1       1      18       0       0       0       0       0       4       0    3003    3830    3831    3834    3833
       1       1      18       0       0       0       0       0       4       0    3004    3831    1625    1626    3834
       1       1      18       0       0       0       0       0       4       0    3005    1557    3832    1629     240
       1       1      18       0       0       0       0       0       4       0    3006    3832    3833    1628    1629
       1       1      18       0       0       0       0       0       4       0    3007    3833    3834    1627    1628
       1       1      18       0       0       0       0       0       4       0    3008    3834    1626     254    1627
       1       1      18       0       0       0       0       0       4       0    3009     241    1630    3835    1564
       1       1      18       0       0       0       0       0       4       0    3010    1630    1631    3836    3835
       1       1      18       0       0       0       0       0       4       0    3011    1631    1632    3837    3836
       1       1      18       0       0       0       0       0       4       0    3012    1632     255    1633    3837
! ... 157 like lines cut
CM, final-1.Set-12, ELEM
ESEL, NONE
!!HMNAME COMP 
!!   1-1-19 4 "final-1.Set-11"
!!HWCOLOR COMP 
!!   1-1-19 6
TYPE, 1  $ MAT, 1  $ REAL, 19
EBLOCK,19,SOLID,        
(19i8)
       1       1      19       0       0       0       0       0       4       0    3169     253    1690    3907    1624
       1       1      19       0       0       0       0       0       4       0    3170    1690    1691    3908    3907
       1       1      19       0       0       0       0       0       4       0    3171    1691    1692    3909    3908
       1       1      19       0       0       0       0       0       4       0    3172    1692     267    1693    3909
       1       1      19       0       0       0       0       0       4       0    3173    1624    3907    3910    1625
       1       1      19       0       0       0       0       0       4       0    3174    3907    3908    3911    3910
       1       1      19       0       0       0       0       0       4       0    3175    3908    3909    3912    3911
       1       1      19       0       0       0       0       0       4       0    3176    3909    1693    1694    3912
       1       1      19       0       0       0       0       0       4       0    3177    1625    3910    3913    1626
       1       1      19       0       0       0       0       0       4       0    3178    3910    3911    3914    3913
       1       1      19       0       0       0       0       0       4       0    3179    3911    3912    3915    3914
       1       1      19       0       0       0       0       0       4       0    3180    3912    1694    1695    3915
       1       1      19       0       0       0       0       0       4       0    3181    1626    3913    1698     254
       1       1      19       0       0       0       0       0       4       0    3182    3913    3914    1697    1698
       1       1      19       0       0       0       0       0       4       0    3183    3914    3915    1696    1697
       1       1      19       0       0       0       0       0       4       0    3184    3915    1695     268    1696
       1       1      19       0       0       0       0       0       4       0    3185     255    1699    3916    1633
       1       1      19       0       0       0       0       0       4       0    3186    1699    1700    3917    3916
       1       1      19       0       0       0       0       0       4       0    3187    1700    1701    3918    3917
       1       1      19       0       0       0       0       0       4       0    3188    1701     269    1702    3918
! ... 157 like lines cut
CM, final-1.Set-11, ELEM
ESEL, NONE
!!HMNAME COMP 
!!   1-1-20 3 "final-1.Set-10"
!!HWCOLOR COMP 
!!   1-1-20 5
TYPE, 1  $ MAT, 1  $ REAL, 20
EBLOCK,19,SOLID,        
(19i8)
       1       1      20       0       0       0       0       0       4       0    3345     267    1759    3988    1693
       1       1      20       0       0       0       0       0       4       0    3346    1759    1760    3989    3988
       1       1      20       0       0       0       0       0       4       0    3347    1760    1761    3990    3989
       1       1      20       0       0       0       0       0       4       0    3348    1761     281    1762    3990
       1       1      20       0       0       0       0       0       4       0    3349    1693    3988    3991    1694
       1       1      20       0       0       0       0       0       4       0    3350    3988    3989    3992    3991
       1       1      20       0       0       0       0       0       4       0    3351    3989    3990    3993    3992
       1       1      20       0       0       0       0       0       4       0    3352    3990    1762    1763    3993
       1       1      20       0       0       0       0       0       4       0    3353    1694    3991    3994    1695
       1       1      20       0       0       0       0       0       4       0    3354    3991    3992    3995    3994
       1       1      20       0       0       0       0       0       4       0    3355    3992    3993    3996    3995
       1       1      20       0       0       0       0       0       4       0    3356    3993    1763    1764    3996
       1       1      20       0       0       0       0       0       4       0    3357    1695    3994    1767     268
       1       1      20       0       0       0       0       0       4       0    3358    3994    3995    1766    1767
       1       1      20       0       0       0       0       0       4       0    3359    3995    3996    1765    1766
       1       1      20       0       0       0       0       0       4       0    3360    3996    1764     282    1765
       1       1      20       0       0       0       0       0       4       0    3361     269    1768    3997    1702
       1       1      20       0       0       0       0       0       4       0    3362    1768    1769    3998    3997
       1       1      20       0       0       0       0       0       4       0    3363    1769    1770    3999    3998
       1       1      20       0       0       0       0       0       4       0    3364    1770     283    1771    3999
! ... 157 like lines cut
CM, final-1.Set-10, ELEM
ESEL, NONE
!!HMNAME COMP 
!!   1-1-29 2 "final-1.Set-1"
!!HWCOLOR COMP 
!!   1-1-29 4
TYPE, 1  $ MAT, 1  $ REAL, 29
EBLOCK,19,SOLID,        
(19i8)
       1       1      29       0       0       0       0       0       4       0    4929     393    2380    4717    2314
       1       1      29       0       0       0       0       0       4       0    4930    2380    2381    4718    4717
       1       1      29       0       0       0       0       0       4       0    4931    2381    2382    4719    4718
       1       1      29       0       0       0       0       0       4       0    4932    2382     407    2383    4719
       1       1      29       0       0       0       0       0       4       0    4933    2314    4717    4720    2315
       1       1      29       0       0       0       0       0       4       0    4934    4717    4718    4721    4720
       1       1      29       0       0       0       0       0       4       0    4935    4718    4719    4722    4721
       1       1      29       0       0       0       0       0       4       0    4936    4719    2383    2384    4722
       1       1      29       0       0       0       0       0       4       0    4937    2315    4720    4723    2316
       1       1      29       0       0       0       0       0       4       0    4938    4720    4721    4724    4723
       1       1      29       0       0       0       0       0       4       0    4939    4721    4722    4725    4724
       1       1      29       0       0       0       0       0       4       0    4940    4722    2384    2385    4725
       1       1      29       0       0       0       0       0       4       0    4941    2316    4723    2388     394
       1       1      29       0       0       0       0       0       4       0    4942    4723    4724    2387    2388
       1       1      29       0       0       0       0       0       4       0    4943    4724    4725    2386    2387
       1       1      29       0       0       0       0       0       4       0    4944    4725    2385     408    2386
       1       1      29       0       0       0       0       0       4       0    4945     395    2389    4726    2323
       1       1      29       0       0       0       0       0       4       0    4946    2389    2390    4727    4726
       1       1      29       0       0       0       0       0       4       0    4947    2390    2391    4728    4727
       1       1      29       0       0       0       0       0       4       0    4948    2391     409    2392    4728
! ... 157 like lines cut
CM, final-1.Set-1, ELEM
ESEL, NONE
!!HMNAME COMP 
!!   1-1-3 21 "final-1.Set-27"
!!HWCOLOR COMP 
!!   1-1-3 44
TYPE, 1  $ MAT, 1  $ REAL, 3
EBLOCK,19,SOLID,        
(19i8)
       1       1       3       0       0       0       0       0       4       0     353      29     586    2611     520
       1       1       3       0       0       0       0       0       4       0     354     586     587    2612    2611
       1       1       3       0       0       0       0       0       4       0     355     587     588    2613    2612
       1       1       3       0       0       0       0       0       4       0     356     588      43     589    2613
       1       1       3       0       0       0       0       0       4       0     357     520    2611    2614     521
       1       1       3       0       0       0       0       0       4       0     358    2611    2612    2615    2614
       1       1       3       0       0       0       0       0       4       0     359    2612    2613    2616    2615
       1       1       3       0       0       0       0       0       4       0     360    2613     589     590    2616
       1       1       3       0       0       0       0       0       4       0     361     521    2614    2617     522
       1       1       3       0       0       0       0       0       4       0     362    2614    2615    2618    2617
       1       1       3       0       0       0       0       0       4       0     363    2615    2616    2619    2618
       1       1       3       0       0       0       0       0       4       0     364    2616     590     591    2619
       1       1       3       0       0       0       0       0       4       0     365     522    2617     594      30
       1       1       3       0       0       0       0       0       4       0     366    2617    2618     593     594
       1       1       3       0       0       0       0       0       4       0     367    2618    2619     592     593
       1       1       3       0       0       0       0       0       4       0     368    2619     591      44     592
       1       1       3       0       0       0       0       0       4       0     369      31     595    2620     529
       1       1       3       0       0       0       0       0       4       0     370     595     596    2621    2620
       1       1       3       0       0       0       0       0       4       0     371     596     597    2622    2621
       1       1       3       0       0       0       0       0       4       0     372     597      45     598    2622
! ... 157 like lines cut
CM, final-1.Set-27, ELEM
ESEL, NONE
!!HMNAME COMP 
!!   1-1-4 20 "final-1.Set-26"
!!HWCOLOR COMP 
!!   1-1-4 41
TYPE, 1  $ MAT, 1  $ REAL, 4
EBLOCK,19,SOLID,        
(19i8)
       1       1       4       0       0       0       0       0       4       0     529      43     655    2692     589
       1       1       4       0       0       0       0       0       4       0     530     655     656    2693    2692
       1       1       4       0       0       0       0       0       4       0     531     656     657    2694    2693
       1       1       4       0       0       0       0       0       4       0     532     657      57     658    2694
       1       1       4       0       0       0       0       0       4       0     533     589    2692    2695     590
       1       1       4       0       0       0       0       0       4       0     534    2692    2693    2696    2695
       1       1       4       0       0       0       0       0       4       0     535    2693    2694    2697    2696
       1       1       4       0       0       0       0       0       4       0     536    2694     658     659    2697
       1       1       4       0       0       0       0       0       4       0     537     590    2695    2698     591
       1       1       4       0       0       0       0       0       4       0     538    2695    2696    2699    2698
       1       1       4       0       0       0       0       0       4       0     539    2696    2697    2700    2699
       1       1       4       0       0       0       0       0       4       0     540    2697     659     660    2700
       1       1       4       0       0       0       0       0       4       0     541     591    2698     663      44
       1       1       4       0       0       0       0       0       4       0     542    2698    2699     662     663
       1       1       4       0       0       0       0       0       4       0     543    2699    2700     661     662
       1       1       4       0       0       0       0       0       4       0     544    2700     660      58     661
       1       1       4       0       0       0       0       0       4       0     545      45     664    2701     598
       1       1       4       0       0       0       0       0       4       0     546     664     665    2702    2701
       1       1       4       0       0       0       0       0       4       0     547     665     666    2703    2702
       1       1       4       0       0       0       0       0       4       0     548     666      59     667    2703
! ... 157 like lines cut
CM, final-1.Set-26, ELEM
ESEL, NONE
!!HMNAME COMP 
!!   1-1-5 19 "final-1.Set-25"
!!HWCOLOR COMP 
!!   1-1-5 40
TYPE, 1  $ MAT, 1  $ REAL, 5
EBLOCK,19,SOLID,        
(19i8)
       1       1       5       0       0       0       0       0       4       0     705      57     724    2773     658
       1       1       5       0       0       0       0       0       4       0     706     724     725    2774    2773
       1       1       5       0       0       0       0       0       4       0     707     725     726    2775    2774
       1       1       5       0       0       0       0       0       4       0     708     726      71     727    2775
       1       1       5       0       0       0       0       0       4       0     709     658    2773    2776     659
       1       1       5       0       0       0       0       0       4       0     710    2773    2774    2777    2776
       1       1       5       0       0       0       0       0       4       0     711    2774    2775    2778    2777
       1       1       5       0       0       0       0       0       4       0     712    2775     727     728    2778
       1       1       5       0       0       0       0       0       4       0     713     659    2776    2779     660
       1       1       5       0       0       0       0       0       4       0     714    2776    2777    2780    2779
       1       1       5       0       0       0       0       0       4       0     715    2777    2778    2781    2780
       1       1       5       0       0       0       0       0       4       0     716    2778     728     729    2781
       1       1       5       0       0       0       0       0       4       0     717     660    2779     732      58
       1       1       5       0       0       0       0       0       4       0     718    2779    2780     731     732
       1       1       5       0       0       0       0       0       4       0     719    2780    2781     730     731
       1       1       5       0       0       0       0       0       4       0     720    2781     729      72     730
       1       1       5       0       0       0       0       0       4       0     721      59     733    2782     667
       1       1       5       0       0       0       0       0       4       0     722     733     734    2783    2782
       1       1       5       0       0       0       0       0       4       0     723     734     735    2784    2783
       1       1       5       0       0       0       0       0       4       0     724     735      73     736    2784
! ... 157 like lines cut
CM, final-1.Set-25, ELEM
ESEL, NONE
!!HMNAME COMP 
!!   1-1-6 18 "final-1.Set-24"
!!HWCOLOR COMP 
!!   1-1-6 37
TYPE, 1  $ MAT, 1  $ REAL, 6
EBLOCK,19,SOLID,        
(19i8)
       1       1       6       0       0       0       0       0       4       0     881      71     793    2854     727
       1       1       6       0       0       0       0       0       4       0     882     793     794    2855    2854
       1       1       6       0       0       0       0       0       4       0     883     794     795    2856    2855
       1       1       6       0       0       0       0       0       4       0     884     795      85     796    2856
       1       1       6       0       0       0       0       0       4       0     885     727    2854    2857     728
       1       1       6       0       0       0       0       0       4       0     886    2854    2855    2858    2857
       1       1       6       0       0       0       0       0       4       0     887    2855    2856    2859    2858
       1       1       6       0       0       0       0       0       4       0     888    2856     796     797    2859
       1       1       6       0       0       0       0       0       4       0     889     728    2857    2860     729
       1       1       6       0       0       0       0       0       4       0     890    2857    2858    2861    2860
       1       1       6       0       0       0       0       0       4       0     891    2858    2859    2862    2861
       1       1       6       0       0       0       0       0       4       0     892    2859     797     798    2862
       1       1       6       0       0       0       0       0       4       0     893     729    2860     801      72
       1       1       6       0       0       0       0       0       4       0     894    2860    2861     800     801
       1       1       6       0       0       0       0       0       4       0     895    2861    2862     799     800
       1       1       6       0       0       0       0       0       4       0     896    2862     798      86     799
       1       1       6       0       0       0       0       0       4       0     897      73     802    2863     736
       1       1       6       0       0       0       0       0       4       0     898     802     803    2864    2863
       1       1       6       0       0       0       0       0       4       0     899     803     804    2865    2864
       1       1       6       0       0       0       0       0       4       0     900     804      87     805    2865
! ... 157 like lines cut
CM, final-1.Set-24, ELEM
ESEL, NONE
!!HMNAME COMP 
!!   1-1-7 17 "final-1.Set-23"
!!HWCOLOR COMP 
!!   1-1-7 35
TYPE, 1  $ MAT, 1  $ REAL, 7
EBLOCK,19,SOLID,        
(19i8)
       1       1       7       0       0       0       0       0       4       0    1057      85     862    2935     796
       1       1       7       0       0       0       0       0       4       0    1058     862     863    2936    2935
       1       1       7       0       0       0       0       0       4       0    1059     863     864    2937    2936
       1       1       7       0       0       0       0       0       4       0    1060     864      99     865    2937
       1       1       7       0       0       0       0       0       4       0    1061     796    2935    2938     797
       1       1       7       0       0       0       0       0       4       0    1062    2935    2936    2939    2938
       1       1       7       0       0       0       0       0       4       0    1063    2936    2937    2940    2939
       1       1       7       0       0       0       0       0       4       0    1064    2937     865     866    2940
       1       1       7       0       0       0       0       0       4       0    1065     797    2938    2941     798
       1       1       7       0       0       0       0       0       4       0    1066    2938    2939    2942    2941
       1       1       7       0       0       0       0       0       4       0    1067    2939    2940    2943    2942
       1       1       7       0       0       0       0       0       4       0    1068    2940     866     867    2943
       1       1       7       0       0       0       0       0       4       0    1069     798    2941     870      86
       1       1       7       0       0       0       0       0       4       0    1070    2941    2942     869     870
       1       1       7       0       0       0       0       0       4       0    1071    2942    2943     868     869
       1       1       7       0       0       0       0       0       4       0    1072    2943     867     100     868
       1       1       7       0       0       0       0       0       4       0    1073      87     871    2944     805
       1       1       7       0       0       0       0       0       4       0    1074     871     872    2945    2944
       1       1       7       0       0       0       0       0       4       0    1075     872     873    2946    2945
       1       1       7       0       0       0       0       0       4       0    1076     873     101     874    2946
! ... 157 like lines cut
CM, final-1.Set-23, ELEM
ESEL, NONE
!!HMNAME COMP 
!!   1-1-8 16 "final-1.Set-22"
!!HWCOLOR COMP 
!!   1-1-8 33
TYPE, 1  $ MAT, 1  $ REAL, 8
EBLOCK,19,SOLID,        
(19i8)
       1       1       8       0       0       0       0       0       4       0    1233      99     931    3016     865
       1       1       8       0       0       0       0       0       4       0    1234     931     932    3017    3016
       1       1       8       0       0       0       0       0       4       0    1235     932     933    3018    3017
       1       1       8       0       0       0       0       0       4       0    1236     933     113     934    3018
       1       1       8       0       0       0       0       0       4       0    1237     865    3016    3019     866
       1       1       8       0       0       0       0       0       4       0    1238    3016    3017    3020    3019
       1       1       8       0       0       0       0       0       4       0    1239    3017    3018    3021    3020
       1       1       8       0       0       0       0       0       4       0    1240    3018     934     935    3021
       1       1       8       0       0       0       0       0       4       0    1241     866    3019    3022     867
       1       1       8       0       0       0       0       0       4       0    1242    3019    3020    3023    3022
       1       1       8       0       0       0       0       0       4       0    1243    3020    3021    3024    3023
       1       1       8       0       0       0       0       0       4       0    1244    3021     935     936    3024
       1       1       8       0       0       0       0       0       4       0    1245     867    3022     939     100
       1       1       8       0       0       0       0       0       4       0    1246    3022    3023     938     939
       1       1       8       0       0       0       0       0       4       0    1247    3023    3024     937     938
       1       1       8       0       0       0       0       0       4       0    1248    3024     936     114     937
       1       1       8       0       0       0       0       0       4       0    1249     101     940    3025     874
       1       1       8       0       0       0       0       0       4       0    1250     940     941    3026    3025
       1       1       8       0       0       0       0       0       4       0    1251     941     942    3027    3026
       1       1       8       0       0       0       0       0       4       0    1252     942     115     943    3027
! ... 157 like lines cut
CM, final-1.Set-22, ELEM
ESEL, NONE
!!HMNAME COMP 
!!   1-1-9 15 "final-1.Set-21"
!!HWCOLOR COMP 
!!   1-1-9 29
TYPE, 1  $ MAT, 1  $ REAL, 9
EBLOCK,19,SOLID,        
(19i8)
       1       1       9       0       0       0       0       0       4       0    1409     113    1000    3097     934
       1       1       9       0       0       0       0       0       4       0    1410    1000    1001    3098    3097
       1       1       9       0       0       0       0       0       4       0    1411    1001    1002    3099    3098
       1       1       9       0       0       0       0       0       4       0    1412    1002     127    1003    3099
       1       1       9       0       0       0       0       0       4       0    1413     934    3097    3100     935
       1       1       9       0       0       0       0       0       4       0    1414    3097    3098    3101    3100
       1       1       9       0       0       0       0       0       4       0    1415    3098    3099    3102    3101
       1       1       9       0       0       0       0       0       4       0    1416    3099    1003    1004    3102
       1       1       9       0       0       0       0       0       4       0    1417     935    3100    3103     936
       1       1       9       0       0       0       0       0       4       0    1418    3100    3101    3104    3103
       1       1       9       0       0       0       0       0       4       0    1419    3101    3102    3105    3104
       1       1       9       0       0       0       0       0       4       0    1420    3102    1004    1005    3105
       1       1       9       0       0       0       0       0       4       0    1421     936    3103    1008     114
       1       1       9       0       0       0       0       0       4       0    1422    3103    3104    1007    1008
       1       1       9       0       0       0       0       0       4       0    1423    3104    3105    1006    1007
       1       1       9       0       0       0       0       0       4       0    1424    3105    1005     128    1006
       1       1       9       0       0       0       0       0       4       0    1425     115    1009    3106     943
       1       1       9       0       0       0       0       0       4       0    1426    1009    1010    3107    3106
       1       1       9       0       0       0       0       0       4       0    1427    1010    1011    3108    3107
       1       1       9       0       0       0       0       0       4       0    1428    1011     129    1012    3108
! ... 157 like lines cut
CM, final-1.Set-21, ELEM
ESEL, NONE
!!HMNAME COMP 
!!   1-1-10 14 "final-1.Set-20"
!!HWCOLOR COMP 
!!   1-1-10 28
TYPE, 1  $ MAT, 1  $ REAL, 10
EBLOCK,19,SOLID,        
(19i8)
       1       1      10       0       0       0       0       0       4       0    1585     127    1069    3178    1003
       1       1      10       0       0       0       0       0       4       0    1586    1069    1070    3179    3178
       1       1      10       0       0       0       0       0       4       0    1587    1070    1071    3180    3179
       1       1      10       0       0       0       0       0       4       0    1588    1071     141    1072    3180
       1       1      10       0       0       0       0       0       4       0    1589    1003    3178    3181    1004
       1       1      10       0       0       0       0       0       4       0    1590    3178    3179    3182    3181
       1       1      10       0       0       0       0       0       4       0    1591    3179    3180    3183    3182
       1       1      10       0       0       0       0       0       4       0    1592    3180    1072    1073    3183
       1       1      10       0       0       0       0       0       4       0    1593    1004    3181    3184    1005
       1       1      10       0       0       0       0       0       4       0    1594    3181    3182    3185    3184
       1       1      10       0       0       0       0       0       4       0    1595    3182    3183    3186    3185
       1       1      10       0       0       0       0       0       4       0    1596    3183    1073    1074    3186
       1       1      10       0       0       0       0       0       4       0    1597    1005    3184    1077     128
       1       1      10       0       0       0       0       0       4       0    1598    3184    3185    1076    1077
       1       1      10       0       0       0       0       0       4       0    1599    3185    3186    1075    1076
       1       1      10       0       0       0       0       0       4       0    1600    3186    1074     142    1075
       1       1      10       0       0       0       0       0       4       0    1601     129    1078    3187    1012
       1       1      10       0       0       0       0       0       4       0    1602    1078    1079    3188    3187
       1       1      10       0       0       0       0       0       4       0    1603    1079    1080    3189    3188
       1       1      10       0       0       0       0       0       4       0    1604    1080     143    1081    3189
! ... 157 like lines cut
CM, final-1.Set-20, ELEM
ESEL, NONE
!!HMNAME COMP 
!!   1-1-11 12 "final-1.Set-19"
!!HWCOLOR COMP 
!!   1-1-11 24
TYPE, 1  $ MAT, 1  $ REAL, 11
EBLOCK,19,SOLID,        
(19i8)
       1       1      11       0       0       0       0       0       4       0    1761     141    1138    3259    1072
       1       1      11       0       0       0       0       0       4       0    1762    1138    1139    3260    3259
       1       1      11       0       0       0       0       0       4       0    1763    1139    1140    3261    3260
       1       1      11       0       0       0       0       0       4       0    1764    1140     155    1141    3261
       1       1      11       0       0       0       0       0       4       0    1765    1072    3259    3262    1073
       1       1      11       0       0       0       0       0       4       0    1766    3259    3260    3263    3262
       1       1      11       0       0       0       0       0       4       0    1767    3260    3261    3264    3263
       1       1      11       0       0       0       0       0       4       0    1768    3261    1141    1142    3264
       1       1      11       0       0       0       0       0       4       0    1769    1073    3262    3265    1074
       1       1      11       0       0       0       0       0       4       0    1770    3262    3263    3266    3265
       1       1      11       0       0       0       0       0       4       0    1771    3263    3264    3267    3266
       1       1      11       0       0       0       0       0       4       0    1772    3264    1142    1143    3267
       1       1      11       0       0       0       0       0       4       0    1773    1074    3265    1146     142
       1       1      11       0       0       0       0       0       4       0    1774    3265    3266    1145    1146
       1       1      11       0       0       0       0       0       4       0    1775    3266    3267    1144    1145
       1       1      11       0       0       0       0       0       4       0    1776    3267    1143     156    1144
       1       1      11       0       0       0       0       0       4       0    1777     143    1147    3268    1081
       1       1      11       0       0       0       0       0       4       0    1778    1147    1148    3269    3268
       1       1      11       0       0       0       0       0       4       0    1779    1148    1149    3270    3269
       1       1      11       0       0       0       0       0       4       0    1780    1149     157    1150    3270
! ... 157 like lines cut
CM, final-1.Set-19, ELEM
ESEL, NONE
!!HMNAME COMP 
!!   1-1-28 13 "final-1.Set-2"
!!HWCOLOR COMP 
!!   1-1-28 25
TYPE, 1  $ MAT, 1  $ REAL, 28
EBLOCK,19,SOLID,        
(19i8)
       1       1      28       0       0       0       0       0       4       0    4753     379    2311    4636    2245
       1       1      28       0       0       0       0       0       4       0    4754    2311    2312    4637    4636
       1       1      28       0       0       0       0       0       4       0    4755    2312    2313    4638    4637
       1       1      28       0       0       0       0       0       4       0    4756    2313     393    2314    4638
       1       1      28       0       0       0       0       0       4       0    4757    2245    4636    4639    2246
       1       1      28       0       0       0       0       0       4       0    4758    4636    4637    4640    4639
       1       1      28       0       0       0       0       0       4       0    4759    4637    4638    4641    4640
       1       1      28       0       0       0       0       0       4       0    4760    4638    2314    2315    4641
       1       1      28       0       0       0       0       0       4       0    4761    2246    4639    4642    2247
       1       1      28       0       0       0       0       0       4       0    4762    4639    4640    4643    4642
       1       1      28       0       0       0       0       0       4       0    4763    4640    4641    4644    4643
       1       1      28       0       0       0       0       0       4       0    4764    4641    2315    2316    4644
       1       1      28       0       0       0       0       0       4       0    4765    2247    4642    2319     380
       1       1      28       0       0       0       0       0       4       0    4766    4642    4643    2318    2319
       1       1      28       0       0       0       0       0       4       0    4767    4643    4644    2317    2318
       1       1      28       0       0       0       0       0       4       0    4768    4644    2316     394    2317
       1       1      28       0       0       0       0       0       4       0    4769     381    2320    4645    2254
       1       1      28       0       0       0       0       0       4       0    4770    2320    2321    4646    4645
       1       1      28       0       0       0       0       0       4       0    4771    2321    2322    4647    4646
       1       1      28       0       0       0       0       0       4       0    4772    2322     395    2323    4647
! ... 157 like lines cut
CM, final-1.Set-2, ELEM
ESEL, NONE
!!HMNAME COMP 
!!   1-1-1 23 "final-1.Set-29"
!!HWCOLOR COMP 
!!   1-1-1 49
TYPE, 1  $ MAT, 1  $ REAL, 1
EBLOCK,19,SOLID,        
(19i8)
       1       1       1       0       0       0       0       0       4       0       1       1     421    2449     432
       1       1       1       0       0       0       0       0       4       0       2     421     422    2450    2449
       1       1       1       0       0       0       0       0       4       0       3     422     423    2451    2450
       1       1       1       0       0       0       0       0       4       0       4     423       2     424    2451
       1       1       1       0       0       0       0       0       4       0       5     432    2449    2452     431
       1       1       1       0       0       0       0       0       4       0       6    2449    2450    2453    2452
       1       1       1       0       0       0       0       0       4       0       7    2450    2451    2454    2453
       1       1       1       0       0       0       0       0       4       0       8    2451     424     425    2454
       1       1       1       0       0       0       0       0       4       0       9     431    2452    2455     430
       1       1       1       0       0       0       0       0       4       0      10    2452    2453    2456    2455
       1       1       1       0       0       0       0       0       4       0      11    2453    2454    2457    2456
       1       1       1       0       0       0       0       0       4       0      12    2454     425     426    2457
       1       1       1       0       0       0       0       0       4       0      13     430    2455     429       4
       1       1       1       0       0       0       0       0       4       0      14    2455    2456     428     429
       1       1       1       0       0       0       0       0       4       0      15    2456    2457     427     428
       1       1       1       0       0       0       0       0       4       0      16    2457     426       3     427
       1       1       1       0       0       0       0       0       4       0      17       5     433    2458     440
       1       1       1       0       0       0       0       0       4       0      18     433     434    2459    2458
       1       1       1       0       0       0       0       0       4       0      19     434     435    2460    2459
       1       1       1       0       0       0       0       0       4       0      20     435       6     436    2460
! ... 157 like lines cut
CM, final-1.Set-29, ELEM
ESEL, NONE
!!HMNAME COMP 
!!   1-1-2 22 "final-1.Set-28"
!!HWCOLOR COMP 
!!   1-1-2 48
TYPE, 1  $ MAT, 1  $ REAL, 2
EBLOCK,19,SOLID,        
(19i8)
       1       1       2       0       0       0       0       0       4       0     177       2     517    2530     424
       1       1       2       0       0       0       0       0       4       0     178     517     518    2531    2530
       1       1       2       0       0       0       0       0       4       0     179     518     519    2532    2531
       1       1       2       0       0       0       0       0       4       0     180     519      29     520    2532
       1       1       2       0       0       0       0       0       4       0     181     424    2530    2533     425
       1       1       2       0       0       0       0       0       4       0     182    2530    2531    2534    2533
       1       1       2       0       0       0       0       0       4       0     183    2531    2532    2535    2534
       1       1       2       0       0       0       0       0       4       0     184    2532     520     521    2535
       1       1       2       0       0       0       0       0       4       0     185     425    2533    2536     426
       1       1       2       0       0       0       0       0       4       0     186    2533    2534    2537    2536
       1       1       2       0       0       0       0       0       4       0     187    2534    2535    2538    2537
       1       1       2       0       0       0       0       0       4       0     188    2535     521     522    2538
       1       1       2       0       0       0       0       0       4       0     189     426    2536     525       3
       1       1       2       0       0       0       0       0       4       0     190    2536    2537     524     525
       1       1       2       0       0       0       0       0       4       0     191    2537    2538     523     524
       1       1       2       0       0       0       0       0       4       0     192    2538     522      30     523
       1       1       2       0       0       0       0       0       4       0     193       6     526    2539     436
       1       1       2       0       0       0       0       0       4       0     194     526     527    2540    2539
       1       1       2       0       0       0       0       0       4       0     195     527     528    2541    2540
       1       1       2       0       0       0       0       0       4       0     196     528      31     529    2541
! ... 157 like lines cut
CM, final-1.Set-28, ELEM
ESEL, NONE
!!HMNAME COMP 
!!   1-1-21 30 "final-1.Set-9"
!!HWCOLOR COMP 
!!   1-1-21 64
TYPE, 1  $ MAT, 1  $ REAL, 21
EBLOCK,19,SOLID,        
(19i8)
       1       1      21       0       0       0       0       0       4       0    3521     281    1828    4069    1762
       1       1      21       0       0       0       0       0       4       0    3522    1828    1829    4070    4069
       1       1      21       0       0       0       0       0       4       0    3523    1829    1830    4071    4070
       1       1      21       0       0       0       0       0       4       0    3524    1830     295    1831    4071
       1       1      21       0       0       0       0       0       4       0    3525    1762    4069    4072    1763
       1       1      21       0       0       0       0       0       4       0    3526    4069    4070    4073    4072
       1       1      21       0       0       0       0       0       4       0    3527    4070    4071    4074    4073
       1       1      21       0       0       0       0       0       4       0    3528    4071    1831    1832    4074
       1       1      21       0       0       0       0       0       4       0    3529    1763    4072    4075    1764
       1       1      21       0       0       0       0       0       4       0    3530    4072    4073    4076    4075
       1       1      21       0       0       0       0       0       4       0    3531    4073    4074    4077    4076
       1       1      21       0       0       0       0       0       4       0    3532    4074    1832    1833    4077
       1       1      21       0       0       0       0       0       4       0    3533    1764    4075    1836     282
       1       1      21       0       0       0       0       0       4       0    3534    4075    4076    1835    1836
       1       1      21       0       0       0       0       0       4       0    3535    4076    4077    1834    1835
       1       1      21       0       0       0       0       0       4       0    3536    4077    1833     296    1834
       1       1      21       0       0       0       0       0       4       0    3537     283    1837    4078    1771
       1       1      21       0       0       0       0       0       4       0    3538    1837    1838    4079    4078
       1       1      21       0       0       0       0       0       4       0    3539    1838    1839    4080    4079
       1       1      21       0       0       0       0       0       4       0    3540    1839     297    1840    4080
! ... 157 like lines cut
CM, final-1.Set-9, ELEM
ESEL, NONE
!!HMNAME COMP 
!!   1-1-22 29 "final-1.Set-8"
!!HWCOLOR COMP 
!!   1-1-22 61
TYPE, 1  $ MAT, 1  $ REAL, 22
EBLOCK,19,SOLID,        
(19i8)
       1       1      22       0       0       0       0       0       4       0    3697     295    1897    4150    1831
       1       1      22       0       0       0       0       0       4       0    3698    1897    1898    4151    4150
       1       1      22       0       0       0       0       0       4       0    3699    1898    1899    4152    4151
       1       1      22       0       0       0       0       0       4       0    3700    1899     309    1900    4152
       1       1      22       0       0       0       0       0       4       0    3701    1831    4150    4153    1832
       1       1      22       0       0       0       0       0       4       0    3702    4150    4151    4154    4153
       1       1      22       0       0       0       0       0       4       0    3703    4151    4152    4155    4154
       1       1      22       0       0       0       0       0       4       0    3704    4152    1900    1901    4155
       1       1      22       0       0       0       0       0       4       0    3705    1832    4153    4156    1833
       1       1      22       0       0       0       0       0       4       0    3706    4153    4154    4157    4156
       1       1      22       0       0       0       0       0       4       0    3707    4154    4155    4158    4157
       1       1      22       0       0       0       0       0       4       0    3708    4155    1901    1902    4158
       1       1      22       0       0       0       0       0       4       0    3709    1833    4156    1905     296
       1       1      22       0       0       0       0       0       4       0    3710    4156    4157    1904    1905
       1       1      22       0       0       0       0       0       4       0    3711    4157    4158    1903    1904
       1       1      22       0       0       0       0       0       4       0    3712    4158    1902     310    1903
       1       1      22       0       0       0       0       0       4       0    3713     297    1906    4159    1840
       1       1      22       0       0       0       0       0       4       0    3714    1906    1907    4160    4159
       1       1      22       0       0       0       0       0       4       0    3715    1907    1908    4161    4160
       1       1      22       0       0       0       0       0       4       0    3716    1908     311    1909    4161
! ... 157 like lines cut
CM, final-1.Set-8, ELEM
ESEL, NONE
!!HMNAME COMP 
!!   1-1-23 28 "final-1.Set-7"
!!HWCOLOR COMP 
!!   1-1-23 60
TYPE, 1  $ MAT, 1  $ REAL, 23
EBLOCK,19,SOLID,        
(19i8)
       1       1      23       0       0       0       0       0       4       0    3873     309    1966    4231    1900
       1       1      23       0       0       0       0       0       4       0    3874    1966    1967    4232    4231
       1       1      23       0       0       0       0       0       4       0    3875    1967    1968    4233    4232
       1       1      23       0       0       0       0       0       4       0    3876    1968     323    1969    4233
       1       1      23       0       0       0       0       0       4       0    3877    1900    4231    4234    1901
       1       1      23       0       0       0       0       0       4       0    3878    4231    4232    4235    4234
       1       1      23       0       0       0       0       0       4       0    3879    4232    4233    4236    4235
       1       1      23       0       0       0       0       0       4       0    3880    4233    1969    1970    4236
       1       1      23       0       0       0       0       0       4       0    3881    1901    4234    4237    1902
       1       1      23       0       0       0       0       0       4       0    3882    4234    4235    4238    4237
       1       1      23       0       0       0       0       0       4       0    3883    4235    4236    4239    4238
       1       1      23       0       0       0       0       0       4       0    3884    4236    1970    1971    4239
       1       1      23       0       0       0       0       0       4       0    3885    1902    4237    1974     310
       1       1      23       0       0       0       0       0       4       0    3886    4237    4238    1973    1974
       1       1      23       0       0       0       0       0       4       0    3887    4238    4239    1972    1973
       1       1      23       0       0       0       0       0       4       0    3888    4239    1971     324    1972
       1       1      23       0       0       0       0       0       4       0    3889     311    1975    4240    1909
       1       1      23       0       0       0       0       0       4       0    3890    1975    1976    4241    4240
       1       1      23       0       0       0       0       0       4       0    3891    1976    1977    4242    4241
       1       1      23       0       0       0       0       0       4       0    3892    1977     325    1978    4242
! ... 157 like lines cut
CM, final-1.Set-7, ELEM
ESEL, NONE
!!HMNAME COMP 
!!   1-1-24 27 "final-1.Set-6"
!!HWCOLOR COMP 
!!   1-1-24 57
TYPE, 1  $ MAT, 1  $ REAL, 24
EBLOCK,19,SOLID,        
(19i8)
       1       1      24       0       0       0       0       0       4       0    4049     323    2035    4312    1969
       1       1      24       0       0       0       0       0       4       0    4050    2035    2036    4313    4312
       1       1      24       0       0       0       0       0       4       0    4051    2036    2037    4314    4313
       1       1      24       0       0       0       0       0       4       0    4052    2037     337    2038    4314
       1       1      24       0       0       0       0       0       4       0    4053    1969    4312    4315    1970
       1       1      24       0       0       0       0       0       4       0    4054    4312    4313    4316    4315
       1       1      24       0       0       0       0       0       4       0    4055    4313    4314    4317    4316
       1       1      24       0       0       0       0       0       4       0    4056    4314    2038    2039    4317
       1       1      24       0       0       0       0       0       4       0    4057    1970    4315    4318    1971
       1       1      24       0       0       0       0       0       4       0    4058    4315    4316    4319    4318
       1       1      24       0       0       0       0       0       4       0    4059    4316    4317    4320    4319
       1       1      24       0       0       0       0       0       4       0    4060    4317    2039    2040    4320
       1       1      24       0       0       0       0       0       4       0    4061    1971    4318    2043     324
       1       1      24       0       0       0       0       0       4       0    4062    4318    4319    2042    2043
       1       1      24       0       0       0       0       0       4       0    4063    4319    4320    2041    2042
       1       1      24       0       0       0       0       0       4       0    4064    4320    2040     338    2041
       1       1      24       0       0       0       0       0       4       0    4065     325    2044    4321    1978
       1       1      24       0       0       0       0       0       4       0    4066    2044    2045    4322    4321
       1       1      24       0       0       0       0       0       4       0    4067    2045    2046    4323    4322
       1       1      24       0       0       0       0       0       4       0    4068    2046     339    2047    4323
! ... 157 like lines cut
CM, final-1.Set-6, ELEM
ESEL, NONE
!!HMNAME COMP 
!!   1-1-25 26 "final-1.Set-5"
!!HWCOLOR COMP 
!!   1-1-25 56
TYPE, 1  $ MAT, 1  $ REAL, 25
EBLOCK,19,SOLID,        
(19i8)
       1       1      25       0       0       0       0       0       4       0    4225     337    2104    4393    2038
       1       1      25       0       0       0       0       0       4       0    4226    2104    2105    4394    4393
       1       1      25       0       0       0       0       0       4       0    4227    2105    2106    4395    4394
       1       1      25       0       0       0       0       0       4       0    4228    2106     351    2107    4395
       1       1      25       0       0       0       0       0       4       0    4229    2038    4393    4396    2039
       1       1      25       0       0       0       0       0       4       0    4230    4393    4394    4397    4396
       1       1      25       0       0       0       0       0       4       0    4231    4394    4395    4398    4397
       1       1      25       0       0       0       0       0       4       0    4232    4395    2107    2108    4398
       1       1      25       0       0       0       0       0       4       0    4233    2039    4396    4399    2040
       1       1      25       0       0       0       0       0       4       0    4234    4396    4397    4400    4399
       1       1      25       0       0       0       0       0       4       0    4235    4397    4398    4401    4400
       1       1      25       0       0       0       0       0       4       0    4236    4398    2108    2109    4401
       1       1      25       0       0       0       0       0       4       0    4237    2040    4399    2112     338
       1       1      25       0       0       0       0       0       4       0    4238    4399    4400    2111    2112
       1       1      25       0       0       0       0       0       4       0    4239    4400    4401    2110    2111
       1       1      25       0       0       0       0       0       4       0    4240    4401    2109     352    2110
       1       1      25       0       0       0       0       0       4       0    4241     339    2113    4402    2047
       1       1      25       0       0       0       0       0       4       0    4242    2113    2114    4403    4402
       1       1      25       0       0       0       0       0       4       0    4243    2114    2115    4404    4403
       1       1      25       0       0       0       0       0       4       0    4244    2115     353    2116    4404
! ... 157 like lines cut
CM, final-1.Set-5, ELEM
ESEL, NONE
!!HMNAME COMP 
!!   1-1-26 25 "final-1.Set-4"
!!HWCOLOR COMP 
!!   1-1-26 53
TYPE, 1  $ MAT, 1  $ REAL, 26
EBLOCK,19,SOLID,        
(19i8)
       1       1      26       0       0       0       0       0       4       0    4401     351    2173    4474    2107
       1       1      26       0       0       0       0       0       4       0    4402    2173    2174    4475    4474
       1       1      26       0       0       0       0       0       4       0    4403    2174    2175    4476    4475
       1       1      26       0       0       0       0       0       4       0    4404    2175     365    2176    4476
       1       1      26       0       0       0       0       0       4       0    4405    2107    4474    4477    2108
       1       1      26       0       0       0       0       0       4       0    4406    4474    4475    4478    4477
       1       1      26       0       0       0       0       0       4       0    4407    4475    4476    4479    4478
       1       1      26       0       0       0       0       0       4       0    4408    4476    2176    2177    4479
       1       1      26       0       0       0       0       0       4       0    4409    2108    4477    4480    2109
       1       1      26       0       0       0       0       0       4       0    4410    4477    4478    4481    4480
       1       1      26       0       0       0       0       0       4       0    4411    4478    4479    4482    4481
       1       1      26       0       0       0       0       0       4       0    4412    4479    2177    2178    4482
       1       1      26       0       0       0       0       0       4       0    4413    2109    4480    2181     352
       1       1      26       0       0       0       0       0       4       0    4414    4480    4481    2180    2181
       1       1      26       0       0       0       0       0       4       0    4415    4481    4482    2179    2180
       1       1      26       0       0       0       0       0       4       0    4416    4482    2178     366    2179
       1       1      26       0       0       0       0       0       4       0    4417     353    2182    4483    2116
       1       1      26       0       0       0       0       0       4       0    4418    2182    2183    4484    4483
       1       1      26       0       0       0       0       0       4       0    4419    2183    2184    4485    4484
       1       1      26       0       0       0       0       0       4       0    4420    2184     367    2185    4485
! ... 157 like lines cut
CM, final-1.Set-4, ELEM
ESEL, NONE
!!HMNAME COMP 
!!   1-1-27 24 "final-1.Set-3"
!!HWCOLOR COMP 
!!   1-1-27 52
TYPE, 1  $ MAT, 1  $ REAL, 27
EBLOCK,19,SOLID,        
(19i8)
       1       1      27       0       0       0       0       0       4       0    4577     365    2242    4555    2176
       1       1      27       0       0       0       0       0       4       0    4578    2242    2243    4556    4555
       1       1      27       0       0       0       0       0       4       0    4579    2243    2244    4557    4556
       1       1      27       0       0       0       0       0       4       0    4580    2244     379    2245    4557
       1       1      27       0       0       0       0       0       4       0    4581    2176    4555    4558    2177
       1       1      27       0       0       0       0       0       4       0    4582    4555    4556    4559    4558
       1       1      27       0       0       0       0       0       4       0    4583    4556    4557    4560    4559
       1       1      27       0       0       0       0       0       4       0    4584    4557    2245    2246    4560
       1       1      27       0       0       0       0       0       4       0    4585    2177    4558    4561    2178
       1       1      27       0       0       0       0       0       4       0    4586    4558    4559    4562    4561
       1       1      27       0       0       0       0       0       4       0    4587    4559    4560    4563    4562
       1       1      27       0       0       0       0       0       4       0    4588    4560    2246    2247    4563
       1       1      27       0       0       0       0       0       4       0    4589    2178    4561    2250     366
       1       1      27       0       0       0       0       0       4       0    4590    4561    4562    2249    2250
       1       1      27       0       0       0       0       0       4       0    4591    4562    4563    2248    2249
       1       1      27       0       0       0       0       0       4       0    4592    4563    2247     380    2248
       1       1      27       0       0       0       0       0       4       0    4593     367    2251    4564    2185
       1       1      27       0       0       0       0       0       4       0    4594    2251    2252    4565    4564
       1       1      27       0       0       0       0       0       4       0    4595    2252    2253    4566    4565
       1       1      27       0       0       0       0       0       4       0    4596    2253     381    2254    4566
! ... 157 like lines cut
CM, final-1.Set-3, ELEM
ESEL, NONE
ESEL, ALL

!! Loadstep Data 

!! Load Data (all loads and boundary conditions).
!!HMNAME LOADCOL 
!!         2 "d"
!!HWCOLOR LOADCOL
!!         2       11
D,3,UZ,             0.0
D,4,UZ,             0.0
D,14,UZ,             0.0
D,15,UZ,             0.0
D,30,UZ,             0.0
D,36,UZ,             0.0
D,44,UZ,             0.0
D,50,UZ,             0.0
D,58,UZ,             0.0
D,64,UZ,             0.0
D,72,UZ,             0.0
D,78,UZ,             0.0
D,86,UZ,             0.0
D,92,UZ,             0.0
D,100,UZ,             0.0
D,106,UZ,             0.0
D,114,UZ,             0.0
D,120,UZ,             0.0
D,128,UZ,             0.0
D,134,UZ,             0.0
! ... 40 like lines cut
D,1,UY,             0.0
D,1,UZ,             0.0
D,2,UY,             0.0
D,2,UZ,             0.0
D,29,UY,             0.0
D,29,UZ,             0.0
D,43,UY,             0.0
D,43,UZ,             0.0
D,57,UY,             0.0
D,57,UZ,             0.0
D,71,UY,             0.0
D,71,UZ,             0.0
D,85,UY,             0.0
D,85,UZ,             0.0
D,99,UY,             0.0
D,99,UZ,             0.0
D,113,UY,             0.0
D,113,UZ,             0.0
D,127,UY,             0.0
D,127,UZ,             0.0
D,141,UY,             0.0
D,141,UZ,             0.0
D,155,UY,             0.0
D,155,UZ,             0.0
D,169,UY,             0.0
D,169,UZ,             0.0
D,183,UY,             0.0
D,183,UZ,             0.0
D,197,UY,             0.0
D,197,UZ,             0.0
D,211,UY,             0.0
D,211,UZ,             0.0
D,225,UY,             0.0
D,225,UZ,             0.0
D,239,UY,             0.0
D,239,UZ,             0.0
D,253,UY,             0.0
D,253,UZ,             0.0
D,267,UY,             0.0
D,267,UZ,             0.0
! ... 20 like lines cut
D,407,ALL,             0.0
D,408,ALL,             0.0
D,409,ALL,             0.0
D,410,ALL,             0.0
D,411,ALL,             0.0
D,412,ALL,             0.0
D,413,ALL,             0.0
D,414,ALL,             0.0
D,415,ALL,             0.0
D,416,ALL,             0.0
D,417,ALL,             0.0
D,418,ALL,             0.0
D,419,ALL,             0.0
D,420,ALL,             0.0
D,2383,ALL,             0.0
D,2384,ALL,             0.0
D,2385,ALL,             0.0
D,2392,ALL,             0.0
D,2399,ALL,             0.0
D,2400,ALL,             0.0
! ... 21 like lines cut
!!HMNAME LOADCOL 
!!         4 "test"
!!HWCOLOR LOADCOL
!!         4       11
F,3478,FY,        -20000.0
F,3480,FY,        -20000.0
F,3475,FY,         20000.0
F,3477,FY,         20000.0
F,3487,FX,        100000.0
F,3487,FY,        -50000.0
F,3489,FX,        100000.0
F,3489,FY,        -50000.0
F,3496,FX,        100000.0
F,3496,FY,         50000.0
F,3498,FX,        100000.0
F,3498,FY,         50000.0
FINISH
